[TITLE]
EPANET     Example     Network     1     
A     simple     example     of     
wall     reactions     are     included.     

[JUNCTIONS]
 1                                   120.0000
 2                                   120.0000
 3                                   120.0000
 5                                   110.0000
 6                                   110.0000

[RESERVOIRS]
 10                                  200.0000                                

[TANKS]

[PIPES]
 1                               1                               2                                  3200.0000     450.0000     100.0000       0.0000       
 2                               2                               3                                  1600.0000     350.0000     100.0000       0.0000       
 4                               5                               6                                  1600.0000     250.0000     100.0000       0.0000       
 7                               2                               5                                  1600.0000     250.0000     100.0000       0.0000       
 8                               3                               6                                  1600.0000     300.0000     100.0000       0.0000       
 13                              10                              1                                   500.0000     450.0000     100.0000       0.0000       

[PUMPS]

[VALVES]

[DEMANDS]
 1                                     0.000000  1                              
 2                                    70.000000  1                              
 3                                    20.000000  1                              
 5                                    10.000000  1                              
 6                                    20.000000  1                              

[EMITTERS]

[STATUS]

[PATTERNS]
 1                                     1.0000       1.0000       1.0000       1.0000       1.0000       1.0000
 1                                     1.0000       1.0000       1.0000       1.0000       1.0000       1.0000
 P1                                    0.0000       0.0000       0.0000       0.0000       0.0000       0.0000
 P1                                    0.0000       0.0000       0.0000       0.0000       0.0000       0.0000
 P1                                    0.0000       0.0000       0.0000       0.0000       0.0000       0.0000
 P1                                    0.0000       0.0000       0.0000       0.0000       0.0000       0.0000
 P1                                    0.0000       0.0000       0.0000       0.0000       0.0000       0.0000
 P1                                    0.0000       0.0000       0.0000       0.0000       0.0000       0.0000
 P1                                    0.0000       0.0000       0.0000       0.0000       0.0000       0.0000
 P1                                    0.0000       0.0000       0.0000       0.0000       0.0000       0.0000
 P1                                    0.0000       0.0000       0.0000       0.0000       0.0000       0.0000
 P1                                    0.0000       0.0000       0.0000       0.0000       0.0000       0.0000
 P1                                    0.0000       0.0000       0.0000       0.0000       0.0000       0.0000
 P1                                    0.0000       0.0000       0.0000       0.0000       0.0000       0.0000
 P1                                    0.0000       0.0000       0.0000       0.0000       0.0000       0.0000
 P1                                    0.0000       0.0000       0.0000       0.0000       0.0000       0.0000
 P1                                    0.0000       0.0000       0.0000       0.0000       0.0000       0.0000
 P1                                    0.0000       0.0000       0.0000       0.0000       0.0000       0.0000
 P1                                    0.0000       0.0000       0.0000       0.0000       0.0000       0.0000
 P1                                    0.0000       0.0000       0.0000       0.0000       0.0000       0.0000
 P1                                    0.0000       0.0000       0.0000       0.0000       0.0000       0.0000
 P1                                    0.0000       0.0000       0.0000       0.0000       0.0000       0.0000
 P1                                    0.0000       0.0000       0.0000       0.0000       0.0000       0.0000
 P1                                    0.0000       0.0000       0.0000       0.0000       0.0000       0.0000
 P1                                    0.0000       0.0000       0.0000       0.0000       0.0000       0.0000
 P1                                    0.0000       0.0000       0.0000       0.0000       0.0000       0.0000
 P1                                    0.0000       0.0000       0.0000       0.0000       0.0000       0.0000
 P1                                    0.0000       0.0000       0.0000       0.0000       0.0000       0.0000
 P1                                    0.0000       0.0000       0.0000       0.0000       0.0000       0.0000
 P1                                    0.0000       0.0000       0.0000       0.0000       0.0000       0.0000
 P1                                    0.0000       0.0000       0.0000       0.0000       0.0000       0.0000
 P1                                    0.0000       0.0000       0.0000       0.0000       0.0000       0.0000
 P1                                    0.0000       0.0000       0.0000       0.0000       0.0000       0.0000
 P1                                    0.0000       0.0000       0.0000       0.0000       0.0000       0.0000
 P1                                    0.0000       0.0000       0.0000       0.0000       0.0000       0.0000
 P1                                    0.0000       0.0000       0.0000       0.0000       0.0000       0.0000
 P1                                    0.0000       0.0000       0.0000       0.0000       0.0000       0.0000
 P1                                    0.0000       0.0000       0.0000       0.0000       0.0000       0.0000
 P1                                    0.0000       0.0000       0.0000       0.0000       0.0000       0.0000
 P1                                    0.0000       0.0000       0.0000       0.0000       0.0000       0.0000
 P1                                    0.0000       0.0000       0.0000       0.0000       0.0000       0.0000
 P1                                    0.0000       0.0000       0.0000       0.0000       0.0000       0.0000
 P1                                    0.0000       0.0000       0.0000       0.0000       0.0000       0.0000
 P1                                    0.0000       0.0000       0.0000       0.0000       0.0000       0.0000
 P1                                    0.0000       0.0000       0.0000       0.0000       0.0000       0.0000
 P1                                    0.0000       0.0000       0.0000       0.0000       0.0000       0.0000
 P1                                    0.0000       0.0000       0.0000       0.0000       0.0000       0.0000
 P1                                    0.0000       0.0000       0.0000       0.0000       0.0000       0.0000
 P1                                    0.0000       0.0000       0.0000       0.0000       0.0000       0.0000
 P1                                    0.0000       0.0000       0.0000       0.0000       0.0000       0.0000
 P2                                   36.0757      35.8599      37.7329      37.0543      36.6751      35.2101
 P2                                   37.7107      41.7626      42.2776      39.3317      43.0517      38.8326
 P2                                   43.2963      43.4284      37.2637      37.8817      39.8470      42.1359
 P2                                   37.6172      43.5593      40.4638      36.8438      46.9109      40.7231
 P2                                   38.5701      44.0807      41.6631      44.0154      46.9881      37.4109
 P2                                   39.5798      43.9363      37.5891      43.0937      38.1682      35.0904
 P2                                   41.8946      35.1617      34.8140      35.0445      35.4292      34.5426
 P2                                   33.3047      31.9870      32.4121      34.7767      40.2371      40.9343
 P2                                   38.2773      35.8683      34.1278      33.8868      35.1351      34.1087
 P2                                   32.0328      36.4839      30.7236      30.6943      36.2604      32.3684
 P2                                   33.7998      35.3424      33.8805      32.6068      35.0228      34.9293
 P2                                   33.0308      33.7503      34.3398      35.1006      34.5521      35.0000
 P2                                   35.0576      35.3715      34.9951      35.1804      34.3034      36.6956
 P2                                   36.3816      38.7605      34.5629      37.0817      39.8075      37.0865
 P2                                   35.8649      39.1374      31.1014      37.6332      33.9524      41.2680
 P2                                   37.9967      42.7426      30.3610      34.8608      35.5733      40.2795
 P2                                   34.1697      39.7477      36.0728      38.5488      32.1792      33.7535
 P2                                   34.5963      34.0541      30.0442      27.9596      32.7761      32.3982
 P2                                   26.4463      26.8318      26.6556      27.7436      30.8603      28.6227
 P2                                   22.8513      28.6651      27.8165      30.3207      34.4006      28.5527
 P2                                   26.6090      24.9979      25.2360      25.5822      29.5972      26.2366
 P2                                   26.8144      25.3232      33.0799      23.2215      32.6555      28.0505
 P2                                   25.2329      28.8591      29.6632      29.9569      32.3303      30.1083
 P2                                   34.7575      32.3579      32.2595      33.2133      34.4900      35.0000
 P2                                   35.1313      36.2722      36.2636      38.0312      39.2582      38.9108
 P2                                   40.0192      43.0047      39.2962      42.3265      41.0966      38.5278
 P2                                   41.7600      41.7390      43.2124      42.8892      40.4561      48.0766
 P2                                   40.0888      42.6460      45.1078      42.8678      44.2411      39.1313
 P2                                   42.7360      40.2555      43.0056      37.2906      43.5958      44.9722
 P2                                   38.3610      35.9141      38.1734      43.5104      43.2432      42.0754
 P2                                   38.4066      42.9471      40.8813      42.5279      37.7333      36.7671
 P2                                   40.2898      36.0504      34.6968      31.1511      31.6185      35.7724
 P2                                   33.9760      38.4478      32.5638      33.4310      32.3771      31.8063
 P2                                   29.8755      34.5164      36.6942      29.6952      33.9284      33.1201
 P2                                   30.6208      31.3978      34.6704      34.0188      33.4891      35.8172
 P2                                   33.6208      32.9668      35.8428      35.1626      34.5225      35.0000
 P2                                   34.8797      35.7660      34.3818      34.5415      35.5024      34.9780
 P2                                   34.3967      33.6998      36.6459      35.6174      34.8916      34.1610
 P2                                   32.1345      37.0647      35.8001      37.6559      36.4566      30.5616
 P2                                   31.6770      36.9259      38.2091      39.6286      38.8168      36.9852
 P2                                   35.2408      38.2012      38.5301      30.7626      32.4595      31.7704
 P2                                   28.2139      29.8251      32.6891      31.0655      32.7244      30.8023
 P2                                   26.5460      27.3335      26.5610      33.1155      31.5316      26.7597
 P2                                   25.6118      25.9212      30.2388      27.5241      23.6391      29.5889
 P2                                   25.0077      25.2711      22.8392      26.1053      30.0593      26.9524
 P2                                   23.7889      29.6717      26.8924      32.5958      28.6840      30.5490
 P2                                   28.5570      32.7991      33.7619      29.1111      30.7559      30.3604
 P2                                   32.1681      31.9928      32.8283      34.4019      34.0866      35.0000
 P3                                   35.4186      36.7688      36.2798      36.6432      38.0808      38.9088
 P3                                   35.7642      41.3884      37.6709      39.4019      41.8359      43.7927
 P3                                   39.2266      42.9160      41.8176      41.4453      42.3425      41.6563
 P3                                   38.8276      48.3515      43.2225      42.1828      43.3485      39.1151
 P3                                   41.4791      43.0417      41.0639      42.1219      44.7255      40.4951
 P3                                   42.8121      44.4790      42.4801      41.2102      39.0553      35.4239
 P3                                   40.9307      37.3557      37.0317      40.7784      36.1513      34.0907
 P3                                   37.3611      41.5660      33.7512      39.7549      40.3757      33.8455
 P3                                   33.8283      29.9641      31.0324      28.4851      28.6250      33.8824
 P3                                   34.9593      34.8087      31.5012      30.9461      30.3775      33.3335
 P3                                   32.2113      35.7522      30.1331      31.8561      34.6153      33.8374
 P3                                   32.5947      34.1610      33.8458      34.4704      34.5175      35.0000
 P3                                   34.9027      35.2964      36.1715      33.9985      36.5018      33.7710
 P3                                   37.2832      34.7344      36.8363      34.5760      37.3525      35.6527
 P3                                   38.9365      37.8610      40.4132      32.7414      36.7101      39.8006
 P3                                   33.9129      36.5540      37.5997      38.9780      29.9567      35.1372
 P3                                   33.8025      35.5176      33.6902      28.9001      34.0551      36.7753
 P3                                   31.5304      29.5842      35.9547      27.6484      30.4675      31.5313
 P3                                   33.4860      26.5796      32.5919      26.1870      31.1211      30.1870
 P3                                   25.6659      26.2641      24.6809      30.2424      26.4863      28.5121
 P3                                   30.8070      27.6892      20.4121      27.3533      26.3518      27.2337
 P3                                   29.3092      24.0986      29.9191      31.1834      32.2285      29.3822
 P3                                   30.0703      26.1514      31.0038      29.9980      33.4578      29.8404
 P3                                   29.8384      33.1709      34.2365      34.2696      34.6249      35.0000
 P3                                   35.6779      37.0133      36.7446      36.5371      35.6865      39.8090
 P3                                   37.6557      40.2653      37.2070      38.0721      37.2404      37.3882
 P3                                   43.2123      45.1148      41.0916      44.7274      41.9950      41.1839
 P3                                   42.8570      40.7940      43.8279      43.9543      44.9912      41.7881
 P3                                   47.9030      43.9027      37.1510      43.3749      39.3755      42.1044
 P3                                   44.0675      39.8089      40.3101      35.4958      42.6815      42.4670
 P3                                   38.5797      34.7953      34.4363      36.0638      40.1087      40.4790
 P3                                   36.5951      35.8672      39.2292      39.5624      32.6225      34.9321
 P3                                   38.0564      37.6603      34.4477      33.6368      33.9026      34.4790
 P3                                   33.7424      32.2720      34.1312      34.1223      33.7563      30.3064
 P3                                   29.9066      30.9890      31.1891      34.3643      35.6629      33.5618
 P3                                   33.2251      35.1511      34.1408      34.9875      34.5646      35.0000
 P3                                   35.2776      35.6182      35.9052      35.2040      35.3621      34.1263
 P3                                   34.4949      37.7501      39.8655      38.3812      32.5344      38.0701
 P3                                   37.2331      39.0908      41.6071      36.0640      32.7413      39.8472
 P3                                   34.1862      31.3486      33.7292      38.1632      35.2296      40.3787
 P3                                   37.2752      35.5167      34.5146      35.8110      30.2722      33.6719
 P3                                   32.3840      30.9263      28.5742      33.4089      29.8101      33.2618
 P3                                   28.8674      25.8459      26.3970      28.2973      31.4478      24.4621
 P3                                   30.2213      27.3312      29.5459      26.8659      30.8825      26.5027
 P3                                   31.7100      28.7349      28.7654      25.5706      28.2640      25.8792
 P3                                   33.5357      30.5725      24.3261      32.9962      27.9547      31.3324
 P3                                   26.6265      27.9507      31.9683      31.0900      33.8863      32.5609
 P3                                   30.9711      34.4074      32.5868      34.0109      34.8581      35.0000
 P4                                   20.5479      20.9335      21.1792      20.8250      20.7160      23.2252
 P4                                   20.8926      23.3879      24.1487      22.6038      21.3349      24.7666
 P4                                   24.9925      21.9341      25.5938      24.4879      24.5464      23.7200
 P4                                   23.3032      24.7620      25.5756      25.6985      21.6656      24.5202
 P4                                   22.8166      26.1363      26.4973      22.3274      26.2358      23.1487
 P4                                   24.6178      25.0282      22.6988      23.1105      20.5431      23.3396
 P4                                   20.1131      21.6402      20.3777      21.3916      19.0270      21.5901
 P4                                   22.8512      18.2215      24.0399      21.3630      19.5706      22.2958
 P4                                   18.3546      20.8405      20.3325      20.3346      19.4539      20.0559
 P4                                   18.5236      20.3604      19.6059      18.4671      18.6158      20.5991
 P4                                   18.3751      19.4298      16.6713      19.1266      19.4134      20.2890
 P4                                   18.8493      20.4057      19.9200      19.9095      19.7898      20.0000
 P4                                   20.0017      20.4600      19.7912      19.5934      21.2422      20.2790
 P4                                   21.3251      18.5335      21.5400      20.2917      19.1323      19.5825
 P4                                   21.8966      19.4309      22.6109      21.6875      21.9698      18.5414
 P4                                   21.0280      18.8912      20.4021      21.5398      21.6573      20.4701
 P4                                   19.6431      19.8942      21.5055      19.2152      17.6792      17.8956
 P4                                   21.2374      19.9143      16.9564      19.7363      19.3857      17.8962
 P4                                   17.4636      18.7238      16.2761      18.1455      17.1077      13.4315
 P4                                   15.1419      14.0385      13.1038      13.5019      13.6172      12.1334
 P4                                   17.9352      15.7117      17.8499      13.4516      12.9141      14.4342
 P4                                   14.9461      13.5162      12.6678      16.9255      17.7215      16.9185
 P4                                   18.1061      15.8300      16.1741      17.6321      16.8461      17.7231
 P4                                   17.9520      18.9381      18.6951      18.8769      19.5044      20.0000
 P4                                   20.3532      21.1021      21.3122      20.6091      21.0112      22.0487
 P4                                   23.4657      23.0547      23.7336      24.2997      24.0987      21.8758
 P4                                   22.6834      26.0365      22.9317      22.7289      24.4302      23.3457
 P4                                   22.1095      26.7485      21.7731      23.2654      26.5548      24.7547
 P4                                   23.2878      25.1075      25.3879      24.5816      25.9794      24.5400
 P4                                   22.7264      23.0766      21.6625      25.4853      24.5085      21.9906
 P4                                   24.6791      21.8442      22.8906      22.9085      21.5022      19.5321
 P4                                   18.1986      19.9885      18.9138      21.1041      19.7611      18.6608
 P4                                   18.6066      21.6138      19.0787      18.9962      22.0290      17.3226
 P4                                   15.5975      18.9872      18.9078      20.6196      17.8108      19.8371
 P4                                   17.9769      18.0580      18.4897      19.0312      19.9483      17.8327
 P4                                   20.1014      19.4447      19.0570      20.1537      19.7118      20.0000
 P4                                   19.8000      20.3545      20.3779      20.3279      19.8835      21.4940
 P4                                   20.6212      20.4383      22.4136      20.6112      19.1083      20.8414
 P4                                   19.7045      23.7651      19.5447      18.1102      18.5393      22.9592
 P4                                   23.3426      19.4190      22.0335      20.8914      17.5330      20.5599
 P4                                   19.6027      16.8891      20.1782      19.4303      19.7767      19.9521
 P4                                   17.9350      15.8467      17.4258      18.9257      19.4114      18.8049
 P4                                   19.7913      15.6188      17.8484      15.5425      17.9684      17.6403
 P4                                   13.3051      14.0351      14.8623      14.5663      15.6277      16.5655
 P4                                   16.1746      15.6875      15.1167      16.2425      14.4027      13.1617
 P4                                   13.7127      16.0884      14.9919      13.8321      18.4582      17.2322
 P4                                   16.7414      16.2114      16.4963      18.6523      16.7260      17.2917
 P4                                   17.8630      19.0152      18.7606      19.7643      19.7979      20.0000
 P5                                   35.3496      36.0485      36.3170      38.7638      37.9597      39.1456
 P5                                   37.9062      36.4413      41.6311      39.5461      39.4976      40.1348
 P5                                   37.2107      41.5254      46.9726      39.5838      44.6097      38.3227
 P5                                   43.4327      43.8613      43.9005      40.8686      44.3466      42.5254
 P5                                   40.9568      41.1672      46.3234      41.0812      44.0821      38.0494
 P5                                   39.6053      43.7091      43.0215      43.0594      44.2941      40.2803
 P5                                   35.1385      39.9958      33.8594      36.9307      35.0987      37.1140
 P5                                   34.7072      32.1344      35.5369      34.9546      33.8823      33.2829
 P5                                   30.6515      33.0900      39.4043      34.7893      34.4466      36.0304
 P5                                   33.5859      38.2504      37.3051      35.2528      32.7034      33.1409
 P5                                   35.7700      31.3023      31.7502      34.0272      32.4679      32.1777
 P5                                   33.3171      34.1647      33.3823      35.4170      35.0412      35.0000
 P5                                   34.9597      35.5491      35.2328      36.2834      34.4377      36.1428
 P5                                   36.9844      37.7656      36.7219      36.1031      37.6303      40.1028
 P5                                   32.2512      31.6969      37.5919      31.0912      37.2761      30.3303
 P5                                   31.6545      34.9168      36.4534      38.3712      37.9996      32.4639
 P5                                   39.7106      35.9407      39.0147      28.2680      37.9794      30.2985
 P5                                   35.9364      34.6721      31.3017      32.3514      29.8213      32.2746
 P5                                   31.2367      33.7932      27.9308      28.3811      31.2765      25.6571
 P5                                   30.6751      31.5119      30.1126      30.1369      31.1034      32.1925
 P5                                   29.9858      27.9612      27.2514      25.5457      30.5056      28.0809
 P5                                   22.1761      29.1238      28.6058      28.6161      30.8807      23.9108
 P5                                   27.7090      31.4920      29.1790      33.9522      31.6314      32.6428
 P5                                   30.4956      31.2435      34.6491      34.1943      34.2060      35.0000
 P5                                   35.6297      35.8514      37.0474      38.4734      39.0087      39.5123
 P5                                   38.2332      42.6999      39.0280      38.0988      40.8619      38.6750
 P5                                   45.2872      37.9872      43.3951      38.2065      41.4671      44.3188
 P5                                   49.0041      42.1159      44.0482      41.6797      43.2406      41.1648
 P5                                   46.1198      39.9781      46.1580      48.2656      43.1360      43.9651
 P5                                   41.8407      41.3557      44.2959      37.6692      42.1847      36.0106
 P5                                   40.2595      35.7496      41.2164      32.7645      37.0305      33.5174
 P5                                   39.4666      32.3433      34.5256      38.8367      37.2660      33.5776
 P5                                   35.4539      33.6256      33.9972      39.7419      32.0258      34.2750
 P5                                   39.3430      34.5649      35.8541      32.8091      30.9353      34.6063
 P5                                   29.3116      29.6788      34.5370      35.8575      33.9802      33.9833
 P5                                   33.1595      33.7307      35.2713      33.9990      35.0434      35.0000
 P5                                   34.9098      36.3874      35.1560      36.9058      36.2051      37.8383
 P5                                   37.8522      37.7658      38.8820      33.0756      37.9334      35.3652
 P5                                   37.5542      37.1185      34.4695      33.6270      31.8111      36.6219
 P5                                   37.9939      36.2749      36.7314      36.5533      35.4735      36.5053
 P5                                   37.7315      35.0468      36.0253      31.9921      34.4239      33.0790
 P5                                   29.0819      32.3816      32.3060      36.2109      31.5472      28.1733
 P5                                   31.9961      26.2880      33.6862      31.4088      28.9741      26.5490
 P5                                   32.5910      29.3469      32.4510      26.9405      24.2006      28.5283
 P5                                   26.7101      26.5087      27.0531      21.4966      29.0906      24.5120
 P5                                   30.3807      23.3973      27.4610      32.7957      31.6952      30.0647
 P5                                   29.9116      33.1271      29.2985      29.3666      30.9732      33.9540
 P5                                   31.9346      33.2665      32.5195      32.9491      34.5379      35.0000
 P6                                   45.4614      47.2409      48.2957      47.7487      47.6848      47.8795
 P6                                   48.1478      47.1257      50.1481      54.8095      52.8235      51.8341
 P6                                   49.6709      46.9968      50.1018      51.8380      47.7258      59.8336
 P6                                   50.3498      49.9633      55.4705      56.3056      55.2076      54.8707
 P6                                   50.7019      52.1674      53.0225      50.0108      57.2774      53.2654
 P6                                   50.0173      50.7848      46.8365      46.6394      49.6200      50.9187
 P6                                   45.2605      50.7548      53.2035      48.9751      45.8235      52.6954
 P6                                   44.7070      51.1714      49.3539      48.1439      48.4657      40.5272
 P6                                   36.9898      45.5707      49.9562      41.0503      43.2496      42.5265
 P6                                   45.5193      41.2836      39.6725      49.6053      44.5211      40.9603
 P6                                   41.8918      44.7970      37.7757      40.5925      42.1452      42.2932