[TITLE]

[JUNCTIONS]
 J-1                                 963.6497
 J-10                                917.3179
 J-100                               876.0410
 J-1000                              858.4226
 J-1001                              869.7252
 J-1002                              923.0118
 J-1003                              948.2344
 J-1004                              998.9360
 J-1005                              989.7354
 J-1006                              963.7230
 J-1007                              957.0555
 J-1008                             1049.6660
 J-1009                              981.7465
 J-101                              1091.6580
 J-1010                              991.7460
 J-1011                              972.9749
 J-1012                              982.0234
 J-1013                             1033.8870
 J-1014                             1022.9310
 J-1015                             1015.2080
 J-1016                              944.0205
 J-1017                              955.8196
 J-1018                              973.8025
 J-1019                              888.7603
 J-102                               957.2280
 J-1020                              927.0332
 J-1021                              945.1269
 J-1022                              924.6705
 J-1023                              955.4907
 J-1024                              971.7500
 J-1025                              941.3131
 J-1026                              993.3311
 J-1027                              932.1942
 J-1028                             1090.9890
 J-1029                             1091.2800
 J-103                               942.1516
 J-1030                              938.6439
 J-1031                              919.7985
 J-1032                              983.4585
 J-1033                              971.8309
 J-1034                              983.4244
 J-1035                              948.6993
 J-1036                             1030.3060
 J-1037                             1025.8530
 J-1038                             1044.9810
 J-1039                              967.8903
 J-104                              1087.3770
 J-1040                              962.3921
 J-1041                              970.5775
 J-1042                             1032.9710
 J-1043                              914.1889
 J-1044                              867.9496
 J-1045                              905.2458
 J-1046                              939.4477
 J-1047                              992.3597
 J-1048                             1068.6450
 J-1049                             1065.6620
 J-105                              1061.2100
 J-1050                              998.4286
 J-1051                              978.2520
 J-1055                             1067.4380
 J-1056                              987.3554
 J-1057                              969.5010
 J-1058                             1122.3250
 J-1059                              938.6650
 J-106                               993.3903
 J-1061                             1036.4120
 J-1062                             1037.6720
 J-1063                             1100.9730
 J-1064                             1096.9550
 J-1065                              935.5256
 J-1066                              969.9454
 J-1067                              971.8132
 J-1068                             1061.9090
 J-1069                             1098.4050
 J-107                               979.3230
 J-1070                              980.0000
 J-1071                              985.4542
 J-1072                              991.1832
 J-1073                              968.7896
 J-1074                              981.7597
 J-1075                              921.9217
 J-1076                              902.8882
 J-1077                             1012.7580
 J-1078                              939.4056
 J-1079                             1065.0760
 J-108                               836.4600
 J-1080                              965.3007
 J-1081                              990.4676
 J-1082                             1072.6370
 J-1083                             1042.0100
 J-1084                              843.9637
 J-1085                              993.6284
 J-1086                             1042.4840
 J-1087                             1042.7600
 J-1089                             1145.7470
 J-109                               927.3951
 J-1091                              970.1384
 J-1092                              931.1740
 J-1093                              985.8035
 J-1094                              960.1166
 J-1095                              946.4942
 J-1096                              960.6632
 J-1097                              928.9121
 J-1098                              969.2724
 J-1099                              971.5308
 J-11                                931.7836
 J-110                               943.9547
 J-1100                             1045.8200
 J-1101                             1003.8940
 J-1102                              896.7836
 J-1103                             1186.1650
 J-1104                             1089.9080
 J-1105                              966.2282
 J-1106                              941.1876
 J-1107                              929.3136
 J-1108                              997.9756
 J-1109                             1070.1150
 J-111                               914.2643
 J-1110                             1059.5250
 J-1111                             1009.2720
 J-1112                             1117.3250
 J-1113                             1110.7090
 J-1114                              954.4104
 J-1115                              951.6343
 J-1116                             1056.2250
 J-1117                              963.2967
 J-1118                              970.1487
 J-1119                              970.0969
 J-112                               931.0729
 J-1120                              944.5837
 J-1121                              901.3218
 J-1122                             1105.2930
 J-1123                              984.9398
 J-1124                             1081.5220
 J-1125                             1077.2550
 J-1126                             1044.9770
 J-1127                             1037.8100
 J-1128                             1030.2230
 J-1129                              895.2289
 J-113                               920.1746
 J-1130                              963.7087
 J-1131                             1024.0980
 J-1132                              887.0701
 J-1133                              900.9729
 J-1134                             1003.7940
 J-1135                             1001.9720
 J-1136                              987.6692
 J-1137                              997.8710
 J-1138                              987.7009
 J-1139                              987.7009
 J-114                               987.0786
 J-1140                              888.0034
 J-1141                             1027.9200
 J-1142                             1020.4210
 J-1143                              969.5606
 J-1144                              967.9979
 J-1145                              961.6271
 J-1146                              960.1693
 J-1147                             1055.5580
 J-1148                             1055.0250
 J-1149                              953.6863
 J-115                               996.3819
 J-1150                              958.7892
 J-1151                             1003.9010
 J-1152                              970.8086
 J-1153                              943.1628
 J-1154                             1011.6060
 J-1155                             1037.6600
 J-1156                             1013.3770
 J-1157                             1050.4850
 J-1158                             1002.4910
 J-1159                              867.5644
 J-116                               930.0000
 J-1160                              983.8592
 J-1161                             1026.6670
 J-1162                             1011.3830
 J-1163                             1084.2650
 J-1164                              965.0704
 J-1165                             1014.2080
 J-1166                             1051.6480
 J-1167                              827.0907
 J-1168                              826.4669
 J-1169                             1052.0570
 J-117                               924.6903
 J-1170                             1054.5960
 J-1171                             1063.8580
 J-1172                             1060.8490
 J-1173                             1021.1960
 J-1174                              999.5725
 J-1175                             1005.0900
 J-1176                              967.9417
 J-1179                              979.8205
 J-118                               948.3930
 J-1180                              973.8218
 J-1181                              990.2594
 J-1182                             1080.1680
 J-1183                             1090.4670
 J-1184                              970.0705
 J-1185                              983.8389
 J-1186                              970.5966
 J-1187                              899.8230
 J-1188                              988.9395
 J-1189                             1060.2460
 J-119                               963.9187
 J-1190                             1019.2090
 J-1191                             1029.0800
 J-1192                              866.6295
 J-1193                             1088.0710
 J-1194                              990.9432
 J-1195                             1090.8370
 J-1196                              919.4534
 J-1197                              958.6658
 J-1198                              969.4573
 J-1199                              941.0060
 J-12                                962.1597
 J-120                               894.0986
 J-1200                              987.4089
 J-1201                              932.2282
 J-1203                             1041.6370
 J-1204                             1050.6400
 J-1205                              948.7371
 J-1206                              976.7059
 J-1207                             1007.3090
 J-1208                             1044.1090
 J-1209                             1034.3950
 J-121                               927.7899
 J-1210                              982.0535
 J-1211                              955.9636
 J-1212                              950.8907
 J-1213                             1042.5180
 J-1214                             1002.9000
 J-1215                             1059.0270
 J-1216                             1159.8350
 J-1217                             1024.4850
 J-1218                             1045.0130
 J-1219                             1011.6830
 J-122                              1038.0210
 J-1220                             1019.9230
 J-1221                             1067.4350
 J-1222                              952.0229
 J-1223                              926.9749
 J-1224                              938.8492
 J-1225                             1082.0050
 J-1226                             1073.1730
 J-1227                              968.1501
 J-1228                             1051.0560
 J-1229                             1071.4390
 J-123                              1040.5220
 J-1230                             1080.1490
 J-1231                              930.6462
 J-1232                              979.2643
 J-1233                              969.9326
 J-1234                             1025.4610
 J-1235                              935.0502
 J-1236                              933.9164
 J-1237                             1134.6300
 J-1238                              958.4938
 J-1239                             1158.6700
 J-124                              1168.3740
 J-1240                             1150.8390
 J-1243                             1082.1630
 J-1244                             1062.9510
 J-1245                             1022.1340
 J-1246                              896.6000
 J-1247                              915.4000
 J-1248                             1063.8530
 J-1249                             1048.6950
 J-125                              1155.3810
 J-1250                             1082.2310
 J-1251                             1081.3650
 J-1252                              998.9485
 J-1253                              990.2135
 J-1254                             1095.5870
 J-1255                             1128.5420
 J-1256                             1099.9500
 J-1257                             1058.2760
 J-1258                             1064.8790
 J-1259                             1053.8210
 J-126                               879.8982
 J-1260                              978.1345
 J-1261                              968.8968
 J-1262                              959.4639
 J-1263                             1000.0490
 J-1265                             1108.2550
 J-1267                              975.6619
 J-1268                              924.9657
 J-1269                              910.3231
 J-127                               877.9485
 J-1270                              945.2049
 J-1271                              949.7224
 J-1272                              861.6312
 J-1273                              970.7944
 J-1274                              927.0717
 J-1275                              987.2477
 J-1276                             1004.1740
 J-1277                             1062.2100
 J-1278                              948.8454
 J-1279                              966.6135
 J-128                                 0.0000
 J-1280                              912.2983
 J-1281                              882.4688
 J-1282                              992.8158
 J-1283                              927.8306
 J-1284                              912.4418
 J-1285                             1115.3010
 J-1286                             1030.1830
 J-1287                             1016.4250
 J-1288                             1102.0000
 J-1289                              912.5352
 J-129                                 0.0000
 J-1290                              903.7742
 J-1291                             1065.1080
 J-1292                              989.4871
 J-1293                              942.2313
 J-1294                              931.9473
 J-1295                              957.1219
 J-1296                             1102.6410
 J-1297                             1078.7240
 J-1298                             1044.7940
 J-1299                              887.2000
 J-13                                924.6942
 J-130                              1064.4650
 J-1301                              951.6394
 J-1302                              907.2936
 J-1303                              895.4949
 J-1304                              994.2994
 J-1305                             1020.2820
 J-1306                              869.2038
 J-1307                              864.2533
 J-1308                              972.7687
 J-131                              1062.2600
 J-1310                             1150.0810
 J-1311                              942.0917
 J-1312                              871.3759
 J-1313                              946.4904
 J-1314                             1031.2030
 J-1315                             1034.3470
 J-1316                              977.9621
 J-1318                              777.4001
 J-1319                              909.0606
 J-132                               988.5416
 J-1320                              931.1335
 J-1322                              978.4337
 J-1323                              973.7356
 J-1324                             1133.9550
 J-1325                              964.3776
 J-1326                              967.5203
 J-1327                              865.6001
 J-1328                              952.4617
 J-1329                              951.0071
 J-133                               958.0349
 J-1330                              932.9080
 J-1331                              983.6605
 J-1332                             1143.1830
 J-1333                             1129.6720
 J-1334                             1094.6050
 J-1335                              946.8215
 J-1336                              954.1169
 J-1337                              932.8627
 J-1338                             1009.9860
 J-1339                              878.1975
 J-134                              1075.9490
 J-1340                             1190.2240
 J-1341                             1003.2310
 J-1342                              990.4713
 J-1343                              983.0972
 J-1344                             1041.7720
 J-1345                              967.2001
 J-1347                             1012.8670
 J-1348                              988.0040
 J-1349                              981.6489
 J-135                               901.0366
 J-1350                              911.8882
 J-1351                              954.1768
 J-1352                              980.2148
 J-1353                              963.6456
 J-1354                              982.4254
 J-1355                             1101.1320
 J-1356                              785.9434
 J-1357                             1132.3200
 J-1358                             1148.5970
 J-1359                             1119.0150
 J-136                               908.1868
 J-1360                             1099.8250
 J-1361                             1003.5480
 J-1362                             1004.7150
 J-1363                             1045.6210
 J-1364                             1010.8780
 J-1365                              970.1898
 J-1366                              990.4708
 J-1367                              997.0615
 J-1368                              980.0815
 J-1369                             1000.2250
 J-137                              1002.1410
 J-1370                              963.9991
 J-1371                              930.0687
 J-1372                              944.3854
 J-1373                              934.4206
 J-1374                              961.5068
 J-1375                             1031.5900
 J-1376                              905.9255
 J-1377                              992.9670
 J-1378                              982.1620
 J-1379                              980.0295
 J-138                               994.2077
 J-1380                              988.4827
 J-1381                              910.8714
 J-1382                             1010.8490
 J-1383                             1010.8490
 J-1384                             1001.6900
 J-1385                             1063.3300
 J-1386                              822.2233
 J-1387                              860.2816
 J-1388                             1009.7920
 J-1389                              915.1718
 J-139                              1070.8960
 J-1390                              799.9206
 J-1391                              978.6340
 J-1392                              977.5446
 J-1393                              984.7567
 J-1395                             1143.1160
 J-1396                             1181.4480
 J-1397                             1029.3220
 J-1398                             1070.6760
 J-1399                              895.7000
 J-14                                801.3531
 J-140                              1069.0230
 J-1400                             1012.1940
 J-1401                             1097.6210
 J-1402                             1046.2200
 J-1403                             1050.7600
 J-1404                             1090.3650
 J-1405                              939.9070
 J-1406                              946.2890
 J-1407                              759.4609
 J-1408                              757.2318
 J-1409                             1062.4810
 J-141                               996.5566
 J-1410                             1077.7240
 J-1411                              964.2391
 J-1412                              988.2202
 J-1413                              937.2150
 J-1414                             1069.0550
 J-1415                             1080.8970
 J-1416                              921.4409
 J-1417                              924.0403
 J-1418                              924.7131
 J-1419                              950.5239
 J-142                              1006.7960
 J-1420                              961.4635
 J-1421                             1132.5150
 J-1422                              987.1791
 J-1423                             1089.0100
 J-1424                             1088.8450
 J-1426                              981.5646
 J-1427                              967.3427
 J-1428                              875.9072
 J-1429                              955.8082
 J-143                              1121.7080
 J-1430                              964.9962
 J-1431                              884.5452
 J-1432                              898.4180
 J-1433                              964.8585
 J-1434                             1191.6580
 J-1435                             1192.8390
 J-1436                              893.0000
 J-1437                              946.9300
 J-1438                             1036.5940
 J-1439                             1013.8840
 J-144                              1121.8850
 J-1440                             1020.3490
 J-1441                              853.0709
 J-1442                              950.9997
 J-1443                              963.3906
 J-1445                              978.5374
 J-1446                              967.3724
 J-1447                              998.9238
 J-1448                              786.5740
 J-145                              1059.1540
 J-1450                              950.0377
 J-1451                             1107.6680
 J-1453                              893.3519
 J-1456                             1025.6480
 J-1457                             1012.4370
 J-1458                              993.3903
 J-1459                              914.6157
 J-146                              1089.5850
 J-1460                             1069.9080
 J-1461                             1047.1150
 J-1462                              963.9796
 J-1463                              954.4297
 J-1464                             1008.0390
 J-1465                             1043.1150
 J-1466                             1012.8820
 J-1467                             1017.4120
 J-1468                              914.1956
 J-1469                             1067.1210
 J-147                              1007.5370
 J-1470                             1073.5340
 J-1471                              952.0956
 J-1472                             1060.0350
 J-1473                              923.9653
 J-1474                             1152.7740
 J-1475                              980.4562
 J-1477                             1132.2560
 J-1478                              967.9991
 J-1479                              967.9991
 J-148                               994.5930
 J-1480                             1159.1870
 J-1481                             1045.7440
 J-1482                             1066.8150
 J-1483                             1012.1560
 J-1484                             1004.2650
 J-1485                              766.9044
 J-1486                              814.9501
 J-1487                             1105.7330
 J-1488                             1182.6780
 J-1489                             1161.5030
 J-149                              1137.1600
 J-1490                              975.3074
 J-1491                             1003.7410
 J-1492                              920.0246
 J-1493                              968.9871
 J-1494                              913.1821
 J-1495                              974.7619
 J-1496                              947.1136
 J-1497                              915.5497
 J-1498                              995.3713
 J-1499                             1001.9230
 J-15                                909.5486
 J-150                              1129.6220
 J-1500                              948.0878
 J-1501                              981.1800
 J-1502                              983.9096
 J-1503                              980.2524
 J-1504                              969.5536
 J-1505                              930.4126
 J-1506                              986.9216
 J-1507                             1181.4690
 J-1508                              978.3972
 J-1509                              968.3035
 J-151                              1095.3450
 J-1510                              970.8364
 J-1511                             1022.7720
 J-1512                              936.4158
 J-1513                              940.0051
 J-1514                              907.4296
 J-1515                              996.6363
 J-1516                              948.2610
 J-1517                             1122.1560
 J-1518                             1030.2710
 J-1519                              941.0570
 J-152                              1094.2310
 J-1521                             1058.3060
 J-1522                              970.3430
 J-1523                             1004.9190
 J-1524                              969.9927
 J-1525                              890.7000
 J-1526                              940.6182
 J-1527                              980.3902
 J-1528                              949.8688
 J-1529                              952.0157
 J-153                               927.4279
 J-1531                             1083.3750
 J-1532                              888.6000
 J-1533                             1145.1770
 J-1534                             1112.1100
 J-1535                              929.2963
 J-1536                              882.7872
 J-1537                             1036.7190
 J-1538                             1018.7310
 J-1539                              954.4690
 J-154                               906.1807
 J-1540                              986.6527
 J-1541                              982.0161
 J-1542                              982.2028
 J-1543                              958.8011
 J-1544                             1047.4900
 J-1545                             1043.4020
 J-1547                             1023.3150
 J-1549                              904.5829
 J-155                               913.3857
 J-1550                             1047.0320
 J-1551                             1148.4980
 J-1552                              868.7448
 J-1553                             1168.0130
 J-1554                             1177.5610
 J-1555                             1087.0620
 J-1556                             1085.5200
 J-1557                              963.3851
 J-1558                              983.9050
 J-1559                             1038.2660
 J-156                               962.8276
 J-1560                             1048.6270
 J-1561                             1192.1580
 J-1562                             1137.1960
 J-1563                              925.7149
 J-1564                              935.4257
 J-1565                              939.8610
 J-1566                             1082.6650
 J-1567                             1042.5110
 J-1568                             1061.5320
 J-157                              1037.9530
 J-1570                             1001.9430
 J-1571                              899.9992
 J-1572                              923.7283
 J-1573                             1001.0040
 J-1574                              952.1475
 J-1575                              943.8803
 J-1576                             1069.1700
 J-1578                             1059.0640
 J-1579                              971.1301
 J-158                              1064.7720
 J-1580                              951.4574
 J-1581                              932.3132
 J-1582                              955.6184
 J-1583                             1152.7790
 J-1584                             1044.6300
 J-1585                              928.7195
 J-1586                              902.7772
 J-1587                              984.8662
 J-1588                              944.7991
 J-1589                              972.0317
 J-159                               971.2939
 J-1590                             1090.9000
 J-1591                              951.7316
 J-1592                              991.1922
 J-1593                             1069.8130
 J-1594                              953.9493
 J-1595                              944.7972
 J-1596                             1150.6270
 J-1597                              990.6331
 J-1598                              981.2047
 J-1599                              875.1106
 J-16                                967.2078
 J-160                               972.4456
 J-1600                             1082.2520
 J-1602                             1193.4900
 J-1603                             1060.9780
 J-1604                             1040.1520
 J-1605                              874.7476
 J-1606                             1011.5150
 J-1607                              931.4889
 J-1608                              918.1086
 J-1609                             1061.3350
 J-161                               991.6812
 J-1610                             1079.6830
 J-1611                             1107.8640
 J-1612                             1101.3510
 J-1613                              887.2849