[TITLE]
L-TOWN v1.2
L-TOWN (v1.2) was developed by KIOS Research and Innovation Center of Excellenc

[JUNCTIONS]
 n1                                   73.2105  ;AMR & PRESSURE SENSOR
 n2                                   73.8737  ;AMR
 n3                                   73.1782  ;AMR
 n4                                   68.2608  ;AMR & PRESSURE SENSOR
 n5                                   65.5695
 n6                                   70.9095  ;AMR
 n7                                   75.9175  ;AMR
 n8                                   64.4833  ;AMR
 n9                                   69.2626  ;AMR
 n10                                  74.3469  ;AMR
 n11                                  63.0588  ;AMR
 n12                                  68.2274
 n13                                  61.9901  ;AMR
 n14                                  68.5805
 n15                                  70.9492
 n16                                  68.7986  ;AMR
 n17                                  60.5935  ;AMR
 n18                                  67.1420  ;AMR
 n19                                  73.3626  ;AMR
 n20                                  65.9549  ;AMR
 n21                                  59.6849  ;AMR
 n22                                  76.1173  ;AMR
 n23                                  64.2052  ;AMR
 n24                                  67.8217  ;AMR
 n25                                  58.9717  ;AMR
 n26                                  61.6305  ;AMR
 n27                                  65.7763  ;AMR
 n28                                  61.4047  ;AMR
 n29                                  71.5429  ;AMR
 n30                                  75.3299  ;AMR
 n31                                  65.0059  ;AMR & PRESSURE SENSOR
 n32                                  71.1590  ;AMR
 n33                                  60.5902  ;AMR
 n34                                  65.8482  ;AMR
 n35                                  59.6258  ;AMR
 n36                                  70.1959  ;AMR
 n37                                  63.9172
 n38                                  58.5794
 n39                                  62.9791  ;AMR
 n40                                  60.2093  ;AMR
 n41                                  69.2961  ;AMR
 n42                                  61.0635  ;AMR
 n43                                  61.8585  ;AMR
 n44                                  66.1177  ;AMR
 n45                                  62.5989  ;AMR
 n46                                  38.8781
 n47                                  38.7028
 n48                                  40.1135
 n49                                  34.8665
 n50                                  44.7174
 n51                                  29.8508
 n52                                  33.2106
 n53                                  29.1285
 n54                                  36.6718  ;PRESSURE SENSOR
 n55                                  43.7044
 n56                                  32.7019
 n57                                  34.5788
 n58                                  30.1017
 n59                                  40.5440
 n60                                  36.5477
 n61                                  36.5714
 n62                                  35.9600
 n63                                  37.0071
 n64                                  34.9234
 n65                                  36.2244
 n66                                  34.2760
 n67                                  32.5016
 n68                                  41.0943
 n69                                  27.7774
 n70                                  29.8554
 n71                                  30.0823
 n72                                  34.4673
 n73                                  33.0899
 n74                                  32.3582
 n75                                  40.1001
 n76                                  30.5603
 n77                                  33.9737
 n78                                  29.2383
 n79                                  32.7267
 n80                                  27.7113
 n81                                  31.0269
 n82                                  39.6884
 n83                                  35.7824
 n84                                  28.8092
 n85                                  38.6811
 n86                                  38.1149
 n87                                  35.2466
 n88                                  34.2301
 n89                                  31.7913
 n90                                  36.3955
 n91                                  33.0649
 n92                                  33.1049
 n93                                  29.3998
 n94                                  27.5188
 n95                                  25.4416
 n96                                  24.1924
 n97                                  27.2125
 n98                                  25.5648
 n99                                  23.3478
 n100                                 25.0658
 n101                                 24.1570
 n102                                 23.6941
 n103                                 24.3635
 n104                                 20.9592
 n105                                 24.0220  ;PRESSURE SENSOR
 n106                                 23.5008
 n107                                 23.5410
 n108                                 19.8166
 n109                                 23.4984
 n110                                 23.8384
 n111                                 25.0000
 n112                                 23.5656
 n113                                 23.6071
 n114                                 20.4764  ;PRESSURE SENSOR
 n115                                 23.8321
 n116                                 20.9110
 n117                                 26.9614
 n118                                 19.0993
 n119                                 20.0895
 n120                                 22.6201
 n121                                 19.3967
 n122                                 22.4946
 n123                                 21.5338
 n124                                 22.6501
 n125                                 20.5899
 n126                                 19.1670
 n127                                 19.1187
 n128                                 22.0969
 n129                                 25.9010
 n130                                 22.1732
 n131                                 19.5520
 n132                                 20.3762
 n133                                 22.5783
 n134                                 19.2113
 n135                                 19.1205
 n136                                 20.3013
 n137                                 19.6856
 n138                                 20.8380
 n139                                 19.6632
 n140                                 27.3504
 n141                                 23.1252
 n142                                 19.6239
 n143                                 20.8754
 n144                                 26.9472
 n145                                 22.1344
 n146                                 21.8276
 n147                                 19.9725
 n148                                 20.1477
 n149                                 20.9496
 n150                                 22.6861
 n151                                 19.8447
 n152                                 19.1334
 n153                                 22.6394
 n154                                 20.3582
 n155                                 26.3852
 n156                                 20.0619
 n157                                 20.4464
 n158                                 19.7472
 n159                                 27.0053
 n160                                 20.2078
 n161                                 21.3197
 n162                                 26.9729
 n163                                 21.6096  ;PRESSURE SENSOR
 n164                                 20.2745
 n165                                 19.8081
 n166                                 20.2750
 n167                                 22.5413
 n168                                 20.4384
 n169                                 27.0181
 n170                                 23.2339
 n171                                 20.6067
 n172                                 19.1601
 n173                                 21.0596
 n174                                 21.4292
 n175                                 19.3536
 n176                                 27.7038
 n177                                 19.3479
 n178                                 21.9026
 n179                                 19.4895
 n180                                 22.7778
 n181                                 23.7049
 n182                                 25.0850
 n183                                 19.3859
 n184                                 27.2441
 n185                                 19.0789
 n186                                 21.8196
 n187                                 19.0349
 n188                                 18.8768  ;PRESSURE SENSOR
 n189                                 18.6826
 n190                                 19.6529
 n191                                 27.4799
 n192                                 22.2060
 n193                                 19.7041
 n194                                 19.7601
 n195                                 16.8285
 n196                                 19.8226
 n197                                 16.5799
 n198                                 22.8492
 n199                                 16.5475
 n200                                 18.2407
 n201                                 19.1060
 n202                                 17.9436
 n203                                 22.0332
 n204                                 16.4360
 n205                                  6.9791
 n206                                  7.9123
 n207                                  2.0579
 n208                                  5.9061
 n209                                  4.6117
 n210                                  2.7477
 n211                                  4.8451
 n212                                  2.3488
 n213                                  3.2427
 n214                                 16.8316
 n215                                  2.0066  ;PRESSURE SENSOR
 n216                                  2.4091
 n217                                  1.8712
 n218                                 29.6006
 n219                                 28.4518
 n220                                 30.7523
 n221                                 28.2232
 n222                                 28.0585
 n223                                 28.5629
 n224                                 26.9114
 n225                                 25.5000
 n226                                  6.1130
 n227                                  5.7901
 n228                                 27.3852
 n229                                 21.5781  ;PRESSURE SENSOR
 n230                                 28.3962
 n231                                  4.8639
 n232                                 26.0377
 n233                                  4.4157
 n234                                  5.1036
 n235                                 24.1047
 n236                                  3.0871
 n237                                  4.0834
 n238                                 24.6076
 n239                                 22.9677
 n240                                 28.8065
 n241                                 22.1953
 n242                                  2.3582
 n243                                  2.6564
 n244                                 21.2523
 n245                                 28.6610
 n246                                  1.9044
 n247                                  2.1170
 n248                                 29.3100
 n249                                 28.5347
 n250                                 28.4140
 n251                                 21.3004
 n252                                 24.7044
 n253                                  2.2871
 n254                                  2.2175
 n255                                 20.9378
 n256                                 17.7770
 n257                                 28.3219
 n258                                 24.7483
 n259                                 24.6010
 n260                                 17.7457
 n261                                 16.7006
 n262                                 24.2606
 n263                                 24.6696
 n264                                 20.6282
 n265                                 28.4319
 n266                                 19.9680
 n267                                 23.3745
 n268                                 21.9354
 n269                                 26.1653
 n270                                 20.8216
 n271                                 34.0390
 n272                                 20.1368
 n273                                 24.5091
 n274                                 32.8648
 n275                                 29.2533
 n276                                 21.3002
 n277                                 22.4480
 n278                                 22.0132
 n279                                 21.7544
 n280                                 29.6042
 n281                                 31.2675
 n282                                 30.4949
 n283                                 27.4233
 n284                                 26.3666
 n285                                 20.4612
 n286                                 29.0388
 n287                                 33.0444
 n288                                 21.6218  ;PRESSURE SENSOR
 n289                                 27.4463
 n290                                 24.6247
 n291                                 32.4985
 n292                                 31.9495
 n293                                 26.5282
 n294                                 26.5192
 n295                                 30.8274
 n296                                 32.1966  ;PRESSURE SENSOR
 n297                                 23.3934
 n298                                 34.8909
 n299                                 26.7205
 n300                                 35.0000
 n301                                 23.5200
 n302                                 23.3123
 n303                                 34.4994
 n304                                 32.9780
 n305                                 25.4869
 n306                                 23.6839
 n307                                 31.4204
 n308                                 23.3861
 n309                                 23.1678
 n310                                 22.3600
 n311                                 29.5998
 n312                                 22.0779
 n313                                 21.7616
 n314                                 29.6902
 n315                                 22.7969
 n316                                 29.3551
 n317                                 22.2884
 n318                                 23.5639
 n319                                 30.4617
 n320                                 28.2142
 n321                                 21.8970
 n322                                 26.9371
 n323                                 26.0702
 n324                                 24.9686
 n325                                 24.3047
 n326                                 23.6854
 n327                                 22.2849
 n328                                 22.1954
 n329                                 24.3743
 n330                                 22.0274
 n331                                 22.9257
 n332                                 18.0000  ;PRESSURE SENSOR
 n333                                 18.0000
 n334                                 18.0000
 n335                                 27.4500
 n336                                 26.0000
 n337                                  4.1000
 n338                                 28.2000
 n339                                 22.8000
 n340                                 30.1000
 n341                                 22.8000
 n342                                 27.3600  ;PRESSURE SENSOR
 n343                                 66.1200  ;AMR
 n344                                 74.2800  ;AMR
 n345                                 71.2300  ;AMR
 n346                                 67.9300  ;AMR
 n347                                 73.6617  ;AMR
 n348                                 74.1128
 n349                                 74.5640  ;AMR
 n350                                 75.0152  ;AMR
 n351                                 75.4663  ;AMR
 n352                                 74.1103  ;AMR
 n353                                 73.5455  ;AMR
 n354                                 73.9127  ;AMR
 n355                                 66.4555  ;AMR
 n356                                 67.3414  ;AMR
 n357                                 69.7450  ;AMR
 n358                                 75.9841  ;AMR
 n359                                 76.0507
 n360                                 64.9738  ;AMR
 n361                                 65.4644  ;AMR
 n362                                 74.0188  ;AMR
 n363                                 73.6907
 n364                                 63.4409  ;AMR
 n365                                 63.8231  ;AMR
 n366                                 61.8702  ;AMR
 n367                                 61.7504  ;AMR
 n368                                 71.0896  ;AMR
 n369                                 60.5924  ;AMR
 n370                                 60.5913  ;AMR
 n371                                 73.8213  ;AMR
 n372                                 65.8656  ;AMR
 n373                                 59.6553  ;AMR
 n374                                 74.9737  ;AMR
 n375                                 73.8301  ;AMR
 n376                                 72.6865  ;AMR
 n377                                 62.9179  ;AMR
 n378                                 68.9578  ;AMR
 n379                                 70.0939  ;AMR
 n380                                 61.2341
 n381                                 74.0464  ;AMR
 n382                                 72.7629  ;AMR
 n383                                 71.4794  ;AMR
 n384                                 69.5445  ;AMR
 n385                                 66.8891  ;AMR
 n386                                 59.3943  ;AMR
 n387                                 64.9448  ;AMR
 n388                                 63.7718  ;AMR
 n389                                 67.0238  ;AMR
 n390                                 38.1640
 n391                                 37.6252
 n392                                 37.0865
 n393                                 38.8775
 n394                                 39.0521
 n395                                 39.2268
 n396                                 39.4015
 n397                                 39.5761
 n398                                 39.7508
 n399                                 39.9254
 n400                                 40.2570
 n401                                 40.4005
 n402                                 41.2645
 n403                                 42.4154
 n404                                 43.5664
 n405                                 34.7226
 n406                                 29.9762
 n407                                 31.6562
 n408                                 36.3159
 n409                                 42.1242
 n410                                 42.8344  ;PRESSURE SENSOR
 n411                                 41.9643
 n412                                 32.6351
 n413                                 32.5684
 n414                                 34.4274
 n415                                 28.5315  ;PRESSURE SENSOR
 n416                                 40.7274
 n417                                 40.9109
 n418                                 35.4624
 n419                                 34.9649
 n420                                 37.4540
 n421                                 37.9009
 n422                                 38.3478
 n423                                 38.7946
 n424                                 39.2415
 n425                                 34.3122
 n426                                 33.7011
 n427                                 36.5315
 n428                                 36.8386
 n429                                 37.1457  ;PRESSURE SENSOR
 n430                                 37.4527
 n431                                 37.7598
 n432                                 38.0669
 n433                                 38.3740
 n434                                 40.5972
 n435                                 28.8164
 n436                                 34.2205
 n437                                 32.5424
 n438                                 39.8942
 n439                                 30.7936
 n440                                 34.2919
 n441                                 34.6102
 n442                                 34.9284
 n443                                 29.0953
 n444                                 28.9522
 n445                                 28.2603
 n446                                 31.2180
 n447                                 31.4091
 n448                                 31.6002
 n449                                 39.1847
 n450                                 35.9868
 n451                                 36.1911
 n452                                 29.8032
 n453                                 30.7973
 n454                                 34.0772
 n455                                 32.9079
 n456                                 31.7385
 n457                                 30.5692
 n458                                 30.5980  ;PRESSURE SENSOR
 n459                                 29.4047
 n460                                 28.2114
 n461                                 34.2970
 n462                                 32.1985
 n463                                 28.8609
 n464                                 28.3219
 n465                                 27.7830
 n466                                 28.7199
 n467                                 28.0399
 n468                                 26.5418
 n469                                 26.9995  ;PRESSURE SENSOR
 n470                                 26.4802
 n471                                 25.9609
 n472                                 24.8170
 n473                                 24.1747
 n474                                 26.1391
 n475                                 26.0878
 n476                                 24.9631
 n477                                 24.8609
 n478                                 22.8701
 n479                                 22.3924
 n480                                 21.9146
 n481                                 21.4369
 n482                                 24.3157
 n483                                 24.5439
 n484                                 22.6375
 n485                                 21.7743
 n486                                 19.4580
 n487                                 19.9531
 n488                                 22.7713
 n489                                 22.0441
 n490                                 21.3170
 n491                                 23.0928
 n492                                 22.9160
 n493                                 22.2249
 n494                                 23.2411
 n495                                 22.9645  ;PRESSURE SENSOR
 n496                                 25.3653
 n497                                 23.7693
 n498                                 26.4312
 n499                                 19.6041
 n500                                 22.0404
 n501                                 21.4607
 n502                                 20.8810
 n503                                 19.2577
 n504                                 20.9964
 n505                                 19.4982
 n506                                 20.9550  ;PRESSURE SENSOR
 n507                                 20.9532
 n508                                 20.3725
 n509                                 19.7919
 n510                                 21.1001
 n511                                 19.5500
 n512                                 20.1304
 n513                                 19.6708
 n514                                 19.2910
 n515                                 19.4151
 n516                                 19.5392  ;PRESSURE SENSOR
 n517                                 20.7313
 n518                                 19.3656
 n519                                 26.6257  ;PRESSURE SENSOR
 n520                                 24.9757
 n521                                 24.0505
 n522                                 21.5056
 n523                                 20.0309
 n524                                 20.3387
 n525                                 21.4862
 n526                                 19.4866
 n527                                 19.3100
 n528                                 25.7956
 n529                                 24.2409
 n530                                 19.3787
 n531                                 19.7982
 n532                                 20.9125
 n533                                 20.4687
 n534                                 25.5403
 n535                                 24.1334
 n536                                 22.7266
 n537                                 22.2569
 n538                                 19.0738
 n539                                 20.6980
 n540                                 18.9223
 n541                                 19.1791
 n542                                 24.7933
 n543                                 23.2015
 n544                                 20.1273
 n545                                 19.7594
 n546                                 19.7716
 n547                                 19.7837
 n548                                 19.7959
 n549                                 19.5515  ;PRESSURE SENSOR
 n550                                 19.3558
 n551                                 25.5173
 n552                                 24.0293
 n553                                 19.9928
 n554                                 19.7778
 n555                                 19.5629
 n556                                 20.8791
 n557                                 25.1034
 n558                                 20.1175
 n559                                 19.9605
 n560                                 19.8035
 n561                                 19.6465
 n562                                 19.4841
 n563                                 20.0358
 n564                                 19.7966
 n565                                 19.5573
 n566                                 19.3181
 n567                                 25.3129
 n568                                 23.6078
 n569                                 20.2607
 n570                                 19.9147
 n571                                 19.5688
 n572                                 19.2228
 n573                                 20.5842
 n574                                 20.1088
 n575                                 19.6334
 n576                                 19.1580
 n577                                 25.7043
 n578                                 27.4739
 n579                                 26.1646
 n580                                 20.7618
 n581                                 18.2994
 n582                                 17.5640
 n583                                 26.3222
 n584                                 25.1646
 n585                                 24.0069
 n586                                 24.9275
 n587                                 22.3750
 n588                                 20.9830
 n589                                 18.7000
 n590                                 17.6400
 n591                                 16.7042
 n592                                 19.1676
 n593                                 18.5126
 n594                                 17.8575
 n595                                 17.2025
 n596                                 19.4271
 n597                                 19.0316
 n598                                 18.6362
 n599                                 22.6452
 n600                                 22.4412
 n601                                 22.2372
 n602                                 21.3130
 n603                                 19.7769
 n604                                 16.5252
 n605                                 16.5029
 n606                                 16.4806
 n607                                 16.4583
 n608                                 16.7894
 n609                                 17.0313
 n610                                 17.2732
 n611                                 17.5150
 n612                                 17.7569
 n613                                 17.9988  ;PRESSURE SENSOR
 n614                                 18.6734
 n615                                 17.7895
 n616                                 17.3383
 n617                                 16.8872
 n618                                 20.5696
 n619                                 17.6656
 n620                                 17.3876
 n621                                 17.1096
 n622                                 16.6338
 n623                                  7.0127
 n624                                  2.4028
 n625                                  5.0030
 n626                                  4.6304
 n627                                 30.1764
 n628                                 28.8837
 n629                                 28.1669