[TITLE]

[JUNCTIONS]
 J-1                                 643.6125
 J-10                                699.2517
 J-100                               706.6241
 J-101                               721.9749
 J-102                               699.0000
 J-103                               700.1707
 J-104                               661.9227
 J-105                               620.8951
 J-106                               702.9526
 J-107                               724.6389
 J-108                               714.2870
 J-109                               677.0813
 J-11                                639.8109
 J-110                               697.8410
 J-111                               722.9426
 J-112                               699.6057
 J-113                               751.4290
 J-114                               747.5352
 J-115                               718.5488
 J-116                               749.7524
 J-117                               737.0958
 J-118                               757.8920
 J-119                               706.8279
 J-12                                654.2697
 J-120                               719.4997
 J-121                               658.1661
 J-122                               684.7508
 J-123                               736.5690
 J-124                               737.1031
 J-125                               756.1769
 J-126                               750.9568
 J-127                               752.6689
 J-128                               696.2079
 J-129                               720.2266
 J-13                                700.7192
 J-130                               622.5479
 J-132                               755.6663
 J-133                               745.0037
 J-134                               744.9968
 J-135                               614.4324
 J-136                               568.7617
 J-137                               713.1440
 J-138                               748.9752
 J-139                               726.5599
 J-14                                728.1481
 J-140                               700.8099
 J-141                               677.5147
 J-142                               679.8157
 J-143                               679.1898
 J-144                               730.7416
 J-145                               746.7308
 J-146                               726.3184
 J-147                               720.9639
 J-148                               716.0075
 J-149                               711.5045
 J-15                                708.2805
 J-150                               711.5497
 J-151                               713.5779
 J-152                               660.0920
 J-153                               673.2422
 J-154                               662.0144
 J-155                               655.0755
 J-156                               726.9587
 J-157                               721.9517
 J-158                               693.6124
 J-159                               700.7714
 J-16                                709.0622
 J-160                               708.5355
 J-161                               752.8376
 J-162                               648.4593
 J-163                               661.7630
 J-164                               745.0728
 J-165                               739.3818
 J-166                               677.7961
 J-167                               628.4075
 J-168                               680.0114
 J-169                               692.4512
 J-17                                670.1029
 J-170                               726.1071
 J-171                               707.0815
 J-172                               721.5562
 J-173                               690.7065
 J-174                               714.9791
 J-175                               732.9838
 J-176                               697.3260
 J-177                               680.2117
 J-178                               681.6132
 J-179                               685.8229
 J-18                                672.5078
 J-180                               687.5209
 J-181                               715.0813
 J-182                               699.1184
 J-183                               719.3694
 J-184                               670.1994
 J-185                               707.3434
 J-186                               743.3083
 J-187                               646.5865
 J-188                               748.9653
 J-189                               787.8117
 J-19                                662.1807
 J-190                               785.3893
 J-191                               758.5847
 J-192                               728.7211
 J-193                               700.9354
 J-194                               714.6756
 J-195                               715.3506
 J-196                               797.8422
 J-197                               806.4025
 J-198                               667.8842
 J-199                               666.7734
 J-2                                 691.5479
 J-20                                639.9435
 J-200                               719.5262
 J-201                               701.1988
 J-202                               808.8744
 J-203                               803.7195
 J-204                               691.5361
 J-205                               726.3391
 J-206                               661.3133
 J-207                               747.6619
 J-208                               725.7711
 J-209                               706.4233
 J-21                                675.5066
 J-210                               715.0793
 J-211                               677.7067
 J-212                               721.8593
 J-213                               620.2164
 J-214                               625.3647
 J-215                               644.0563
 J-216                               767.1385
 J-217                               777.1094
 J-218                               726.4224
 J-219                               735.7269
 J-22                                730.9838
 J-220                               661.0286
 J-221                               654.9487
 J-222                               647.1282
 J-223                               666.9501
 J-224                               660.5461
 J-225                               739.2662
 J-226                               743.9206
 J-227                               743.3279
 J-228                               692.8350
 J-229                               687.5063
 J-23                                724.4074
 J-230                               784.5536
 J-231                               650.3597
 J-232                               648.5925
 J-233                               758.5870
 J-234                               761.2057
 J-235                               648.4175
 J-236                               646.1559
 J-237                               708.1414
 J-238                               733.8907
 J-239                               623.5656
 J-24                                708.5902
 J-240                               631.0914
 J-241                               681.6094
 J-242                               722.9388
 J-243                               729.0598
 J-244                               619.0154
 J-245                               619.0328
 J-246                               673.9817
 J-247                               646.0821
 J-248                               802.7411
 J-249                               744.4558
 J-25                                754.4199
 J-250                               757.8050
 J-251                               745.1602
 J-252                               743.9971
 J-253                               744.0010
 J-254                               742.0944
 J-255                               727.7844
 J-256                               712.7849
 J-257                               634.8331
 J-258                               639.0853
 J-259                               730.2886
 J-26                                750.1595
 J-260                               718.0557
 J-261                               786.4194
 J-262                               754.8816
 J-263                               736.8210
 J-264                               733.1737
 J-265                               705.4413
 J-266                               641.3671
 J-267                               722.5134
 J-268                               736.6317
 J-269                               728.5175
 J-27                                746.7093
 J-270                               733.2495
 J-271                               682.1855
 J-272                               646.6413
 J-273                               576.0055
 J-274                               745.3016
 J-275                               734.1326
 J-276                               729.1540
 J-277                               723.0098
 J-278                               725.5107
 J-279                               632.6080
 J-279a                              694.7078
 J-279b                              698.4673
 J-279c                              722.8555
 J-279d                              732.8305
 J-28                                727.4074
 J-280                               729.6555
 J-281                               684.0764
 J-282                               710.9420
 J-283                               728.8250
 J-284                               749.7438
 J-285                               730.8912
 J-286                               719.6233
 J-287                               676.7990
 J-288                               723.4586
 J-289                               628.9413
 J-29                                748.8252
 J-290                               643.9691
 J-291                               635.4633
 J-292                               705.6591
 J-293                               640.2685
 J-294                               687.4729
 J-295                               759.9334
 J-296                               755.5684
 J-297                               757.2551
 J-298                               757.1677
 J-299                               635.1190
 J-3                                 699.3776
 J-30                                641.6505
 J-300                               675.9158
 J-301                               737.4558
 J-302                               695.3920
 J-303                               747.1337
 J-304                               751.1572
 J-305                               653.7792
 J-306                               736.7504
 J-307                               742.8175
 J-308                               671.7853
 J-309                               662.4697
 J-30a                               734.9035
 J-30c                               730.9496
 J-31                                796.2919
 J-310                               729.6563
 J-311                               727.6553
 J-312                               745.1714
 J-313                               665.5409
 J-314                               757.3111
 J-315                               755.9917
 J-316                               747.1240
 J-317                               595.5911
 J-318                               706.2422
 J-319                               729.8044
 J-32                                656.2264
 J-320                               753.1742
 J-321                               737.8170
 J-322                               690.9702
 J-323                               664.9874
 J-324                               664.9387
 J-325                               676.3726
 J-326                               664.7787
 J-327                               758.9628
 J-328                               757.8595
 J-329                               723.2094
 J-330                               639.6691
 J-331                               639.2299
 J-332                               716.2867
 J-333                               746.8603
 J-334                               699.1787
 J-335                               690.7701
 J-336                               612.6066
 J-337                               707.5329
 J-338                               646.7208
 J-339                               577.5190
 J-34                                719.7644
 J-340                               756.0731
 J-341                               729.5407
 J-342                               723.4368
 J-343                               742.2394
 J-344                               668.2103
 J-345                               697.7388
 J-346                               694.8021
 J-347                               724.9914
 J-348                               751.4607
 J-349                               736.0372
 J-35                                701.0314
 J-350                               746.9274
 J-351                               756.8616
 J-352                               703.8218
 J-353                               698.7494
 J-354                               742.0058
 J-355                               801.1042
 J-356                               694.3318
 J-357                               679.4840
 J-358                               641.1918
 J-359                               623.0101
 J-36                                749.6347
 J-360                               701.7468
 J-361                               662.4772
 J-362                               647.4205
 J-363                               644.2810
 J-364                               723.5623
 J-365                               672.3470
 J-366                               731.1339
 J-367                               745.5449
 J-368                               754.0531
 J-37                                737.2794
 J-370                               787.6113
 J-371                               717.4294
 J-373                               760.9945
 J-374                               747.6749
 J-375                               758.2205
 J-376                               748.7636
 J-377                               714.0132
 J-378                               727.9954
 J-379                               664.5673
 J-38                                778.0533
 J-380                               756.9037
 J-381                               761.0009
 J-382                               709.0190
 J-383                               726.4497
 J-384                               755.5746
 J-385                               681.0746
 J-386                               707.8671
 J-387                               696.8563
 J-388                               729.8748
 J-389                               742.9648
 J-39                                718.8330
 J-390                               659.7955
 J-391                               734.2992
 J-392                               733.1375
 J-393                               745.1375
 J-394                               717.9465
 J-395                               658.7728
 J-396                               682.6063
 J-397                               664.1751
 J-398                               727.3901
 J-399                               741.3782
 J-4                                 699.3403
 J-40                                740.8661
 J-400                               726.8157
 J-401                               724.9912
 J-402                                 0.0000
 J-403                                 0.0000
 J-404                               717.0602
 J-405                               644.2443
 J-406                               698.3257
 J-407                               700.4443
 J-408                               731.6746
 J-409                               732.2070
 J-41                                743.3571
 J-410                               724.4658
 J-411                               729.9709
 J-412                               729.0663
 J-413                               749.4981
 J-414                               754.4094
 J-415                               668.9210
 J-416                               725.4373
 J-417                               757.0124
 J-418                               753.2610
 J-419                               761.3789
 J-42                                724.0350
 J-420                               752.7452
 J-421                               740.3820
 J-422                               749.4400
 J-423                               719.5223
 J-424                               734.7084
 J-425                               808.5627
 J-426                               736.9559
 J-427                               741.9988
 J-428                               808.0463
 J-429                               742.7495
 J-43                                722.0311
 J-430                               736.9000
 J-431                               639.1710
 J-432                               740.2863
 J-433                               782.9904
 J-434                               773.4643
 J-435                               741.6120
 J-436                               740.4270
 J-437                               729.7877
 J-438                               746.1234
 J-439                               726.0660
 J-44                                571.9886
 J-440                               738.7120
 J-441                               779.5622
 J-442                               780.3383
 J-443                               707.9972
 J-444                               728.2292
 J-445                               685.3956
 J-446                               730.0798
 J-447                               709.9551
 J-448                               712.2189
 J-449                               706.6934
 J-45                                701.7426
 J-450                               801.6972
 J-451                               756.1406
 J-452                               740.2670
 J-453                               746.7767
 J-454                               697.5497
 J-455                               708.9360
 J-456                               718.4388
 J-457                               739.3159
 J-458                               736.2476
 J-459                               647.8790
 J-46                                736.8795
 J-460                               730.0996
 J-461                               730.6989
 J-462                               793.2693
 J-463                               780.3585
 J-464                               739.9327
 J-465                               747.7370
 J-466                               735.0383
 J-467                               712.8026
 J-468                               753.3873
 J-469                               752.1991
 J-47                                723.9783
 J-471                               748.7955
 J-472                               753.7001
 J-473                               749.6799
 J-474                               701.2809
 J-475                               751.9648
 J-476                               762.0748
 J-477                               742.4354
 J-478                               733.7653
 J-479                               740.9584
 J-48                                723.6882
 J-480                               754.2413
 J-481                               741.5432
 J-482                               722.2722
 J-483                               700.1282
 J-484                               743.1292
 J-485                               746.8118
 J-486                               705.3309
 J-487                               743.9613
 J-488                               723.9537
 J-489                               781.1053
 J-49                                725.4071
 J-490                               740.7384
 J-491                               736.0383
 J-492                               674.5926
 J-493                               673.3041
 J-494                               684.1831
 J-495                               658.6769
 J-496                               749.6558
 J-497                               717.6129
 J-498                               703.9775
 J-499                               724.9130
 J-5                                 670.8621
 J-50                                623.9462
 J-500                               731.9288
 J-501                               693.6984
 J-502                               738.5663
 J-503                               715.5731
 J-504                               724.1257
 J-505                               718.4500
 J-506                               747.5535
 J-507                               729.0618
 J-508                               742.8702
 J-509                               745.5108
 J-51                                637.3093
 J-510                               756.1304
 J-511                               704.3947
 J-512                               755.8772
 J-513                               744.1718
 J-514                               720.0000
 J-515                               743.5598
 J-516                               748.4454
 J-517                               740.8084
 J-518                               742.3586
 J-519                               721.9369
 J-52                                773.7026
 J-520                               682.9331
 J-521                               768.9036
 J-522                               689.8705
 J-523                               740.2523
 J-524                               722.8454
 J-525                               750.9837
 J-526                               721.0583
 J-527                               676.3008
 J-528                               676.3141
 J-529                               626.7314
 J-53                                649.1959
 J-530                               614.3530
 J-531                               616.1205
 J-532                               621.8708
 J-533                               616.0178
 J-534                               618.8929
 J-535                                 0.0000
 J-537                               638.7615
 J-539                                 0.0000
 J-54                                682.4119
 J-55                                659.6411
 J-56                                667.1165
 J-57                                722.2917
 J-58                                744.9841
 J-59                                699.6282
 J-6                                 652.0185
 J-60                                614.8525
 J-61                                732.0645
 J-62                                736.8340
 J-63                                597.7676
 J-64                                560.6610
 J-65                                733.0356
 J-66                                739.6605
 J-68                                712.0206
 J-69                                724.9742
 J-7                                 683.8088
 J-70                                717.0819
 J-71                                708.5272
 J-72                                709.7828
 J-73                                702.6595
 J-74                                686.1834
 J-75                                701.6619
 J-76                                713.3717
 J-77                                659.5390
 J-78                                748.1758
 J-79                                749.9225
 J-8                                 741.9304
 J-80                                756.3016
 J-81                                732.4424
 J-82                                684.0261
 J-83                                625.2985
 J-84                                621.7883
 J-85                                641.7316
 J-86                                585.8758
 J-87                                754.9787
 J-88                                756.1782
 J-89                                756.9113
 J-9                                 690.5974
 J-90                                637.5046
 J-91                                647.8330
 J-92                                723.7026
 J-93                                699.5851
 J-94                                805.8963
 J-95                                665.7209
 J-96                                718.0361
 J-97                                722.4918
 J-98                                745.1796
 J-99                                745.7253
 I-Pump-1                            492.0000
 O-Pump-2                            631.8012
 I-RV-1                              604.3511
 O-Pump-1                            492.0000
 I-Pump-2                            631.8012
 O-RV-1                              604.3511

[RESERVOIRS]
 R-1                                 492.0000                                
 R-2                                 628.9600                                

[TANKS]
 T-1                                 762.5445     132.4555     117.4555     142.4555      58.0000  310326.7596                                
 T-2                                 740.2293     149.7707     144.7707     164.7707      65.0000  480393.6621                                
 T-3                                 825.6524      74.3476      64.3476      99.3476      31.0000   48567.4859                                

[PIPES]
 P-1                             J-1                             J-236                                18.0490       4.0000     150.0000       0.0000       
 P-10                            J-18                            J-290                              5420.0600      16.0000     150.0000       0.0000       
 P-100                           J-168                           J-169                               582.0900       6.0000     150.0000       0.0000       
 P-101                           J-170                           J-171                               249.3990       6.0000     150.0000       0.0000       
 P-102                           J-172                           J-143                               553.3200       6.0000     150.0000       0.0000       
 P-103                           J-142                           J-177                                10.6400       6.0000     150.0000       0.0000       
 P-104                           J-174                           J-71                                143.6490       6.0000     150.0000       0.0000       
 P-105                           J-151                           J-174                                47.8800       6.0000     150.0000       0.0000       
 P-106                           J-173                           J-176                               228.0000       6.0000     150.0000       0.0000       
 P-107                           J-177                           J-178                               515.1590       6.0000     150.0000       0.0000       
 P-108                           J-179                           J-180                               249.3390       6.0000     150.0000       0.0000       
 P-109                           J-181                           J-14                                419.9100       6.0000     150.0000       0.0000       
 P-11                            J-20                            J-305                              6970.0290      10.0000     150.0000       0.0000       
 P-110                           J-173                           J-182                               144.6490       6.0000     150.0000       0.0000       
 P-111                           J-183                           J-92                                101.9890       6.0000     150.0000       0.0000       
 P-112                           J-141                           J-184                               433.2690       6.0000     150.0000       0.0000       
 P-113                           J-185                           J-15                                 18.5000       2.0000     150.0000       0.0000       
 P-114                           J-155                           J-53                                151.7500       2.0000     150.0000       0.0000       
 P-115                           J-132                           J-126                               250.5800       6.0000     150.0000       0.0000       
 P-116                           J-189                           J-190                               365.7390       2.0000     150.0000       0.0000       
 P-117                           J-191                           J-116                               498.3590       0.7500     150.0000       0.0000       
 P-118                           J-192                           J-193                              2203.8990       6.0000     150.0000       0.0000       
 P-119                           J-149                           J-194                               276.2600       6.0000     150.0000       0.0000       
 P-12                            J-12                            J-474                              2874.6200      12.0000     150.0000       0.0000       
 P-120                           J-195                           J-149                               225.2500       6.0000     150.0000       0.0000       
 P-121                           J-196                           J-197                               148.3690       8.0000     150.0000       0.0000       
 P-122                           J-198                           J-199                               702.7890       2.0000     150.0000       0.0000       
 P-123                           J-200                           J-3                                 878.8690      12.0000     150.0000       0.0000       