[TITLE]
Export input file via plugin ExportEpanetInpFiles. 

[JUNCTIONS]
;ID              	Elev        	Demand      	Pattern         
 2               	12.70269    	0.0         	                	;
 3               	14.60063    	0.2214      	                	;
 4               	13.45182    	2.92        	                	;
 5               	13.37062    	0.0         	                	;
 6               	11.12719    	0.0619      	                	;
 7               	15.75226    	0.6167      	                	;
 8               	11.05777    	0.0875      	                	;
 9               	10.57601    	0.0493      	                	;
 10              	13.05611    	0.3888      	                	;
 11              	13.02834    	0.0         	                	;
 12              	10.40278    	0.211       	                	;
 13              	13.47321    	0.0         	                	;
 14              	13.22319    	0.0958      	                	;
 15              	13.05853    	0.0511      	                	;
 16              	13.27003    	0.0         	                	;
 17              	13.33726    	0.0007      	                	;
 18              	14.14598    	0.4759      	                	;
 19              	14.03325    	0.0         	                	;
 20              	13.56291    	0.0         	                	;
 21              	13.25131    	0.0         	                	;
 22              	13.15206    	0.2394      	                	;
 23              	9.63005     	0.2502      	                	;
 24              	11.91135    	0.1451      	                	;
 25              	11.96707    	0.0         	                	;
 26              	11.98395    	0.2988      	                	;
 27              	8.73594     	0.0         	                	;
 28              	8.54169     	0.2225      	                	;
 29              	8.56782     	0.3845      	                	;
 30              	8.32794     	0.0061      	                	;
 31              	8.33452     	0.0         	                	;
 32              	8.34768     	0.099       	                	;
 33              	10.49997    	0.365       	                	;
 34              	10.47725    	0.0         	                	;
 35              	10.42536    	0.3672      	                	;
 36              	6.11296     	0.0         	                	;
 37              	6.32747     	0.0         	                	;
 38              	6.66364     	0.0914      	                	;
 39              	7.78179     	0.1336      	                	;
 40              	5.87062     	0.0         	                	;
 41              	6.45676     	0.2581      	                	;
 42              	7.66525     	0.0961      	                	;
 43              	5.84174     	0.0         	                	;
 44              	7.2648      	0.0         	                	;
 45              	6.05158     	0.0         	                	;
 46              	6.01835     	0.0         	                	;
 47              	7.16762     	0.0         	                	;
 48              	5.79011     	0.0         	                	;
 49              	6.53956     	0.0         	                	;
 50              	6.55165     	0.0         	                	;
 51              	12.38524    	0.6091      	                	;
 52              	6.5781      	0.0         	                	;
 53              	6.71221     	0.0         	                	;
 55              	6.69162     	0.0         	                	;
 56              	13.39621    	0.0         	                	;
 58              	6.61548     	0.0         	                	;
 59              	6.55306     	0.0         	                	;
 60              	6.53934     	0.0         	                	;
 61              	13.46271    	0.0         	                	;
 62              	6.45633     	0.0         	                	;
 63              	6.51811     	0.0         	                	;
 64              	6.3697      	0.6779      	                	;
 65              	6.44133     	0.1372      	                	;
 66              	12.29032    	0.0403      	                	;
 67              	13.55885    	0.0749      	                	;
 68              	6.34221     	0.0         	                	;
 69              	12.3281     	0.0         	                	;
 70              	11.35958    	0.1501      	                	;
 71              	6.33088     	0.0         	                	;
 72              	11.32108    	0.0623      	                	;
 73              	10.05555    	0.7708      	                	;
 75              	6.32063     	0.0         	                	;
 76              	4.86389     	0.0         	                	;
 77              	4.8801      	0.0         	                	;
 78              	11.03768    	0.0         	                	;
 79              	4.91099     	0.0         	                	;
 80              	10.97763    	0.0079      	                	;
 81              	10.89853    	0.0364      	                	;
 82              	12.75559    	0.1519      	                	;
 83              	4.41565     	0.0         	                	;
 84              	12.83931    	0.0968      	                	;
 85              	9.4578      	0.0         	                	;
 86              	4.40615     	0.0         	                	;
 87              	5.10365     	0.0         	                	;
 88              	4.41049     	0.428       	                	;
 90              	9.10474     	0.3938      	                	;
 91              	14.07763    	0.1282      	                	;
 92              	14.0984     	0.0533      	                	;
 93              	6.22441     	0.1861      	                	;
 94              	6.32945     	0.0         	                	;
 95              	6.4699      	0.0         	                	;
 96              	13.36125    	0.0583      	                	;
 97              	6.44984     	0.4871      	                	;
 98              	7.94703     	0.0         	                	;
 99              	7.94357     	0.1868      	                	;
 100             	7.96475     	0.0         	                	;
 101             	7.26536     	0.4979      	                	;
 102             	3.08709     	0.0         	                	;
 103             	4.08338     	0.004       	                	;
 104             	7.20185     	0.0         	                	;
 105             	9.60765     	0.5681      	                	;
 106             	7.96767     	0.0832      	                	;
 107             	13.73491    	0.0302      	                	;
 108             	5.99935     	0.0187      	                	;
 109             	3.02349     	0.0         	                	;
 110             	6.06044     	0.0         	                	;
 111             	7.64484     	0.1735      	                	;
 112             	13.81399    	0.0         	                	;
 113             	6.14795     	0.0         	                	;
 114             	13.8065     	0.0018      	                	;
 115             	7.5852      	0.0018      	                	;
 116             	2.9917      	0.5238      	                	;
 117             	13.70987    	0.0         	                	;
 118             	13.61323    	0.0         	                	;
 119             	6.4369      	0.6444      	                	;
 120             	7.19531     	0.2477      	                	;
 121             	14.75811    	0.1163      	                	;
 122             	2.35815     	0.0         	                	;
 123             	14.83333    	0.0774      	                	;
 124             	12.85505    	0.2333      	                	;
 125             	12.8033     	0.0         	                	;
 126             	12.77931    	0.2192      	                	;
 127             	2.3223      	0.0         	                	;
 128             	2.34911     	0.0         	                	;
 129             	2.65642     	0.549       	                	;
 130             	6.44731     	0.0         	                	;
 131             	6.40096     	0.0382      	                	;
 132             	6.34062     	0.0         	                	;
 133             	6.2523      	0.0         	                	;
 134             	13.66101    	0.0421      	                	;
 135             	13.66549    	0.0025      	                	;
 136             	1.90439     	0.0         	                	;
 137             	13.59023    	0.0         	                	;
 138             	13.52545    	0.0         	                	;
 139             	6.39967     	0.4662      	                	;
 140             	13.66505    	0.0317      	                	;
 141             	6.4643      	0.1033      	                	;
 142             	11.25764    	0.1696      	                	;
 143             	14.61042    	0.0994      	                	;
 144             	11.22637    	0.4068      	                	;
 145             	14.50634    	0.0         	                	;
 146             	11.12126    	0.0         	                	;
 147             	13.02083    	0.0702      	                	;
 148             	12.99915    	0.0         	                	;
 149             	12.94397    	0.1159      	                	;
 150             	14.35653    	0.0         	                	;
 151             	2.11696     	1.1779      	                	;
 152             	14.31       	0.0         	                	;
 153             	14.30413    	0.0         	                	;
 154             	14.31009    	0.0         	                	;
 155             	14.31175    	0.0         	                	;
 156             	13.77885    	0.0         	                	;
 157             	14.28057    	0.0396      	                	;
 158             	13.68703    	0.0126      	                	;
 159             	11.89563    	0.144       	                	;
 160             	13.61677    	0.0         	                	;
 161             	11.64345    	0.0         	                	;
 162             	11.51771    	0.0842      	                	;
 163             	13.53473    	0.0         	                	;
 164             	13.41403    	0.0         	                	;
 165             	6.30044     	0.2524      	                	;
 166             	6.21675     	0.0         	                	;
 167             	10.1783     	0.3794      	                	;
 168             	6.11251     	0.2938      	                	;
 169             	13.39533    	0.0         	                	;
 170             	13.09725    	0.0         	                	;
 171             	9.70442     	0.7643      	                	;
 172             	6.23528     	0.0         	                	;
 173             	13.02434    	0.1476      	                	;
 174             	13.39365    	0.1231      	                	;
 175             	14.73816    	0.248       	                	;
 176             	11.00803    	0.0814      	                	;
 177             	14.7806     	0.0126      	                	;
 178             	10.84533    	0.0785      	                	;
 179             	2.28709     	1.1009      	                	;
 180             	2.19048     	0.0         	                	;
 181             	10.77213    	0.104       	                	;
 182             	10.73225    	0.0         	                	;
 183             	2.20579     	0.0         	                	;
 184             	13.32336    	0.0119      	                	;
 185             	6.39911     	0.0         	                	;
 186             	2.21747     	0.0         	                	;
 187             	6.27533     	0.0         	                	;
 188             	5.93777     	0.0         	                	;
 189             	6.1114      	0.0007      	                	;
 190             	9.78648     	0.0382      	                	;
 191             	13.36129    	0.0         	                	;
 192             	6.15031     	0.0731      	                	;
 193             	9.78142     	0.0         	                	;
 194             	2.777       	1.1552      	                	;
 195             	13.32186    	0.0511      	                	;
 196             	14.86765    	0.0032      	                	;
 197             	11.28041    	0.0         	                	;
 198             	13.28447    	0.0         	                	;
 199             	9.74829     	0.0446      	                	;
 200             	13.29233    	0.0108      	                	;
 201             	9.60102     	0.0         	                	;
 202             	2.76204     	0.1163      	                	;
 203             	12.66219    	0.0108      	                	;
 204             	2.76315     	0.1969      	                	;
 205             	12.55038    	0.041       	                	;
 206             	14.81538    	0.0         	                	;
 207             	14.83       	0.09        	                	;
 208             	2.74573     	0.036       	                	;
 209             	12.17382    	0.0         	                	;
 210             	11.98061    	0.1703      	                	;
 211             	13.29194    	0.0         	                	;
 212             	11.89822    	0.0         	                	;
 213             	11.87935    	0.0         	                	;
 214             	2.16479     	0.283       	                	;
 215             	13.32526    	0.0         	                	;
 216             	2.09024     	0.0         	                	;
 217             	11.83811    	0.0295      	                	;
 218             	1.99901     	0.0         	                	;
 219             	1.70057     	0.0         	                	;
 220             	11.7813     	0.0587      	                	;
 221             	13.36066    	0.0954      	                	;
 222             	9.63354     	0.3848      	                	;
 223             	11.04327    	0.0382      	                	;
 224             	15.74801    	0.0083      	                	;
 225             	13.36713    	0.0472      	                	;
 226             	9.45317     	0.1174      	                	;
 227             	13.36695    	0.0648      	                	;
 228             	1.96225     	0.0         	                	;
 229             	9.26056     	0.0         	                	;
 230             	10.46012    	0.1055      	                	;
 231             	1.9823      	0.0         	                	;
 232             	10.36989    	0.0565      	                	;
 233             	9.17273     	0.0         	                	;
 234             	9.08491     	0.2444      	                	;
 235             	15.75552    	0.0976      	                	;
 236             	8.53128     	0.0         	                	;
 237             	8.38533     	0.9936      	                	;
 238             	6.26417     	0.0         	                	;
 239             	9.66957     	0.0         	                	;
 240             	6.00945     	0.0         	                	;
 241             	5.62824     	0.0         	                	;
 242             	9.69019     	0.0         	                	;
 243             	9.69045     	0.0454      	                	;
 244             	9.44334     	0.0263      	                	;
 245             	8.64915     	0.0         	                	;
 246             	9.40036     	0.0374      	                	;
 247             	8.59489     	0.0         	                	;
 248             	13.41606    	0.0068      	                	;
 249             	13.43185    	0.0385      	                	;
 250             	5.1158      	0.0         	                	;
 251             	9.05977     	0.0367      	                	;
 252             	9.00253     	0.0         	                	;
 253             	8.70055     	0.0         	                	;
 254             	4.96796     	0.2474      	                	;
 255             	8.53049     	0.0         	                	;
 256             	4.84792     	0.0         	                	;
 257             	4.77302     	0.2196      	                	;
 258             	8.37449     	0.1933      	                	;
 259             	6.93544     	0.2297      	                	;
 260             	9.76775     	0.1217      	                	;
 261             	9.78346     	0.4082      	                	;
 262             	8.16532     	0.0         	                	;
 263             	8.08069     	0.0         	                	;
 264             	8.03088     	0.0         	                	;
 265             	2.8216      	0.365       	                	;
 266             	16.03902    	0.0         	                	;
 267             	1.7961      	0.0         	                	;
 268             	8.44443     	0.2862      	                	;
 269             	15.88317    	0.0         	                	;
 270             	2.5172      	0.1469      	                	;
 271             	15.73831    	0.0007      	                	;
 274             	6.85162     	0.0522      	                	;
 275             	2.13677     	0.0014      	                	;
 276             	10.16209    	0.2725      	                	;
 277             	2.22388     	0.0         	                	;
 278             	2.22461     	0.5839      	                	;
 279             	6.50912     	0.1217      	                	;
 280             	15.05077    	0.0         	                	;
 281             	6.41503     	0.023       	                	;
 282             	14.96376    	0.0         	                	;
 283             	6.27294     	0.3071      	                	;
 284             	8.47015     	0.0         	                	;
 285             	14.86477    	0.0014      	                	;
 286             	3.04343     	0.3917      	                	;
 287             	14.95039    	0.0         	                	;
 288             	11.25326    	0.1314      	                	;
 289             	14.9634     	0.387       	                	;
 290             	4.82578     	0.0         	                	;
 291             	3.30024     	0.054       	                	;
 292             	4.29579     	0.0         	                	;
 293             	4.44801     	0.2704      	                	;
 294             	4.21578     	0.0         	                	;
 295             	14.83582    	0.0         	                	;
 296             	16.38113    	0.0         	                	;
 297             	14.18958    	0.0         	                	;
 298             	4.01323     	0.0         	                	;
 299             	14.10159    	0.0353      	                	;
 300             	4.48993     	0.0         	                	;
 301             	4.61364     	0.2318      	                	;
 302             	3.75438     	0.1048      	                	;
 303             	3.87072     	0.0         	                	;
 304             	3.9532      	0.0         	                	;
 305             	11.60415    	0.1822      	                	;
 306             	13.26748    	0.0         	                	;
 307             	16.21345    	0.4186      	                	;
 308             	8.19139     	0.0         	                	;
 309             	12.51106    	0.0         	                	;
 310             	12.91546    	0.1361      	                	;
 311             	12.50094    	0.0         	                	;
 312             	12.93214    	0.0         	                	;
 313             	12.49489    	0.0         	                	;
 314             	9.42335     	0.2347      	                	;
 315             	12.97123    	0.1364      	                	;
 316             	15.18263    	0.0         	                	;
 317             	12.37842    	0.0         	                	;
 318             	8.30985     	0.3535      	                	;
 319             	12.29519    	0.5929      	                	;
 320             	8.33724     	0.0043      	                	;
 321             	2.65898     	0.5782      	                	;
 322             	3.80893     	0.0947      	                	;
 323             	8.36659     	0.0918      	                	;
 324             	2.56943     	0.0         	                	;
 325             	11.31439    	0.1084      	                	;
 326             	2.4612      	0.0         	                	;
 327             	11.20172    	0.0         	                	;
 328             	12.25952    	0.0         	                	;
 329             	6.34583     	0.0         	                	;
 330             	11.03879    	0.0418      	                	;
 331             	2.43269     	0.0         	                	;
 332             	15.05879    	0.2743      	                	;
 333             	2.43153     	0.8597      	                	;
 334             	15.05346    	0.0         	                	;
 335             	16.10024    	0.1015      	                	;
 336             	11.00693    	0.0         	                	;
 337             	16.09681    	0.0954      	                	;
 338             	15.04437    	0.1721      	                	;
 339             	10.99938    	0.5015      	                	;
 340             	9.44857     	0.059       	                	;
 341             	3.63941     	10.931      	                	;
 342             	13.28492    	0.0461      	                	;
 343             	9.43986     	0.0007      	                	;
 344             	3.62958     	0.0         	                	;
 345             	3.62176     	0.0         	                	;
 346             	9.44633     	0.0756      	                	;
 347             	14.43145    	0.2041      	                	;
 348             	6.77588     	0.0979      	                	;
 349             	14.46181    	0.0         	                	;
 350             	9.363       	0.0         	                	;
 351             	6.70576     	0.0         	                	;
 352             	12.96913    	0.104       	                	;
 353             	9.32425     	0.2326      	                	;
 354             	14.47923    	0.0         	                	;
 355             	6.62471     	0.3445      	                	;
 356             	14.49852    	0.1498      	                	;
 357             	12.8689     	0.0428      	                	;
 358             	6.33113     	0.0         	                	;
 359             	6.14515     	0.2106      	                	;
 360             	14.29971    	0.0         	                	;
 361             	8.51315     	0.0504      	                	;
 362             	8.50966     	0.0         	                	;
 363             	15.7804     	0.0122      	                	;
 364             	16.06267    	0.0986      	                	;
 365             	15.73967    	0.1051      	                	;
 366             	13.94952    	0.0         	                	;
 367             	16.01276    	0.1012      	                	;
 368             	8.52817     	0.0         	                	;
 369             	13.75707    	0.0         	                	;
 370             	13.60267    	0.0162      	                	;
 371             	8.51919     	0.0817      	                	;
 372             	13.53004    	0.0         	                	;
 373             	15.82002    	0.0         	                	;
 374             	8.44149     	0.0         	                	;
 375             	8.34942     	0.0767      	                	;
 376             	4.50243     	0.0         	                	;
 377             	4.54026     	0.4835      	                	;
 378             	12.82741    	0.1174      	                	;
 379             	14.44771    	0.135       	                	;
 380             	12.8165     	0.0         	                	;
 381             	14.34595    	0.0         	                	;
 382             	14.12855    	0.0         	                	;
 383             	14.23832    	0.0         	                	;
 384             	14.19656    	0.0         	                	;
 385             	12.87095    	0.0         	                	;
 386             	12.8655     	0.0598      	                	;
 387             	15.62342    	0.0457      	                	;
 388             	15.64832    	0.1948      	                	;
 389             	15.64036    	0.0         	                	;
 390             	15.6508     	0.0839      	                	;
 391             	15.63345    	0.0396      	                	;
 392             	7.35801     	0.2408      	                	;
 393             	4.3934      	0.2246      	                	;
 394             	15.82558    	0.0         	                	;
 395             	14.49524    	0.0         	                	;
 396             	15.86912    	0.0         	                	;
 397             	7.09648     	0.0191      	                	;
 398             	15.5787     	0.0         	                	;
 399             	15.55702    	0.0972      	                	;
 400             	15.89092    	0.0         	                	;
 401             	6.26072     	0.2574      	                	;
 402             	6.14267     	0.0         	                	;
 403             	6.0336      	0.0929      	                	;
 404             	14.66854    	0.013       	                	;
 405             	15.76253    	0.0         	                	;
 406             	15.96635    	0.0         	                	;
 407             	12.99046    	0.149       	                	;
 408             	15.98228    	0.0         	                	;
 409             	15.67331    	0.0         	                	;
 410             	15.2042     	0.0         	                	;
 411             	5.22786     	0.0432      	                	;
 412             	15.12821    	0.0731      	                	;
 413             	15.47975    	0.0         	                	;
 414             	15.42711    	0.0         	                	;
 415             	7.80209     	0.0         	                	;
 416             	15.32182    	0.2866      	                	;
 417             	12.80842    	0.0029      	                	;
 418             	14.54834    	0.2686      	                	;
 419             	4.4634      	0.0         	                	;
 420             	7.72049     	0.3315      	                	;
 421             	14.57809    	0.0         	                	;
 422             	14.64046    	0.0         	                	;
 423             	12.72829    	0.1008      	                	;
 424             	7.67074     	0.0         	                	;
 425             	10.89197    	0.0126      	                	;
 426             	7.63242     	0.09        	                	;
 427             	15.77773    	0.0         	                	;
 428             	14.56447    	0.1084      	                	;
 429             	4.51999     	0.0781      	                	;
 430             	7.65149     	0.0209      	                	;
 431             	4.3123      	0.4637      	                	;
 432             	14.3163     	0.0         	                	;
 433             	14.2002     	0.0         	                	;
 434             	15.69909    	0.0         	                	;
 435             	7.59392     	0.3294      	                	;
 436             	15.66855    	0.0         	                	;
 437             	2.50751     	0.0         	                	;
 438             	15.49941    	0.0         	                	;
 439             	9.95855     	0.0         	                	;
 440             	10.97169    	0.0         	                	;
 441             	4.57048     	0.0         	                	;
 442             	4.57889     	0.0454      	                	;
 443             	13.97803    	0.0551      	                	;
 444             	6.75999     	0.144       	                	;
 445             	14.53409    	0.0         	                	;
 446             	14.49565    	0.1084      	                	;
 447             	6.48686     	0.0454      	                	;
 448             	4.03204     	0.0         	                	;
 449             	12.50885    	0.1134      	                	;
 450             	12.45487    	0.0         	                	;
 451             	6.35897     	0.0         	                	;
 452             	15.02496    	0.0         	                	;
 453             	12.31126    	0.108       	                	;
 454             	6.30359     	0.2066      	                	;
 455             	14.91205    	0.0         	                	;
 456             	14.09965    	0.1062      	                	;
 457             	5.88799     	0.2398      	                	;
 458             	13.52868    	0.0         	                	;
 459             	4.65542     	0.2909      	                	;
 460             	12.25728    	0.0         	                	;
 461             	13.4853     	0.0446      	                	;
 462             	10.68408    	0.1606      	                	;
 463             	5.29035     	0.0324      	                	;
 464             	5.15607     	0.0         	                	;
 465             	4.68489     	0.1019      	                	;
 466             	13.16329    	0.0         	                	;
 467             	4.68118     	0.0         	                	;
 468             	9.47564     	0.6681      	                	;
 469             	10.55243    	0.0922      	                	;
 470             	4.68393     	0.0068      	                	;
 471             	7.72181     	0.0         	                	;
 472             	4.63706     	0.0         	                	;
 473             	12.42037    	0.0         	                	;
 474             	14.34943    	0.1782      	                	;
 475             	4.55261     	0.0         	                	;
 476             	12.28762    	0.0486      	                	;
 477             	4.54642     	0.0         	                	;
 478             	13.27067    	0.0475      	                	;
 479             	13.19004    	0.1102      	                	;
 480             	4.43843     	0.1649      	                	;
 481             	10.39722    	0.0594      	                	;