[TITLE]
Export input file via plugin ExportEpanetInpFiles. 

[JUNCTIONS]
;ID              	Elev        	Demand      	Pattern         
 2               	11.33467    	0.0         	                	;
 3               	11.26425    	0.0         	                	;
 4               	2.1251      	0.0         	                	;
 5               	2.11215     	0.0         	                	;
 6               	1.62083     	0.0         	                	;
 7               	1.68472     	0.0         	                	;
 8               	2.32737     	0.0         	                	;
 9               	2.28165     	0.0         	                	;
 10              	15.92797    	0.338       	                	;
 11              	15.99394    	0.0         	                	;
 12              	16.00533    	0.0         	                	;
 13              	16.00233    	0.0         	                	;
 14              	15.78368    	0.1786      	                	;
 15              	16.29726    	0.0         	                	;
 16              	12.5425     	0.0         	                	;
 17              	12.93651    	0.0         	                	;
 18              	12.95292    	0.0         	                	;
 19              	12.3941     	0.041       	                	;
 20              	12.93811    	0.013       	                	;
 21              	16.56106    	0.0         	                	;
 22              	16.56106    	0.0         	                	;
 23              	12.18875    	0.1091      	                	;
 24              	12.90793    	0.0         	                	;
 25              	12.12622    	0.0         	                	;
 26              	16.34574    	0.1552      	                	;
 27              	16.27498    	0.0032      	                	;
 28              	12.09496    	0.0         	                	;
 29              	11.65659    	0.0281      	                	;
 30              	11.60777    	0.0         	                	;
 31              	15.30937    	0.0         	                	;
 32              	11.67795    	0.0472      	                	;
 33              	12.0691     	0.0         	                	;
 34              	11.66244    	0.0281      	                	;
 35              	14.95653    	0.0         	                	;
 36              	12.0675     	0.0         	                	;
 37              	14.78952    	0.0         	                	;
 38              	14.5595     	0.0         	                	;
 39              	14.49996    	0.0         	                	;
 40              	11.44337    	0.0         	                	;
 41              	14.47618    	0.0         	                	;
 42              	11.33896    	0.0         	                	;
 43              	14.28819    	0.0184      	                	;
 44              	17.37476    	0.0         	                	;
 45              	17.14907    	0.0         	                	;
 46              	16.93559    	0.0         	                	;
 47              	13.08036    	0.0065      	                	;
 48              	12.9723     	0.0         	                	;
 49              	10.99075    	0.0         	                	;
 50              	12.6931     	0.0         	                	;
 51              	10.91536    	0.0         	                	;
 52              	17.39667    	0.0         	                	;
 53              	11.86474    	0.0155      	                	;
 54              	11.77769    	0.0306      	                	;
 55              	17.10643    	0.0         	                	;
 56              	16.94871    	0.1116      	                	;
 57              	10.54963    	0.0         	                	;
 58              	11.38725    	0.0         	                	;
 59              	11.38976    	0.0         	                	;
 60              	11.44635    	0.0         	                	;
 61              	10.49093    	0.0         	                	;
 62              	10.64243    	0.0         	                	;
 63              	11.35925    	0.0         	                	;
 64              	16.15807    	0.0         	                	;
 65              	11.3748     	0.0         	                	;
 66              	10.53534    	0.0         	                	;
 67              	10.43742    	0.0         	                	;
 68              	11.34241    	0.0         	                	;
 69              	11.33516    	0.0         	                	;
 70              	10.35186    	0.0011      	                	;
 71              	15.33285    	0.0         	                	;
 72              	15.23046    	0.0         	                	;
 73              	15.83718    	0.0         	                	;
 74              	9.81071     	0.0396      	                	;
 75              	9.72392     	0.0         	                	;
 76              	11.22692    	0.0         	                	;
 77              	12.8316     	0.0         	                	;
 78              	12.8316     	0.0         	                	;
 79              	10.25997    	0.0011      	                	;
 80              	10.25131    	0.0011      	                	;
 81              	11.16522    	0.0         	                	;
 82              	15.40245    	0.0         	                	;
 83              	14.91221    	0.0         	                	;
 84              	10.24265    	0.0         	                	;
 85              	14.79879    	0.0         	                	;
 86              	17.93697    	0.0         	                	;
 87              	9.39178     	0.0         	                	;
 88              	12.87063    	0.0         	                	;
 89              	12.51968    	0.1584      	                	;
 90              	10.22586    	0.0011      	                	;
 91              	15.22679    	0.0         	                	;
 92              	9.30519     	0.0         	                	;
 93              	15.15529    	0.0         	                	;
 94              	11.03043    	0.0414      	                	;
 95              	14.95653    	0.0         	                	;
 96              	14.17722    	0.0         	                	;
 97              	11.67283    	0.0         	                	;
 98              	10.29817    	0.0472      	                	;
 99              	15.10172    	0.0         	                	;
 100             	10.32268    	0.0         	                	;
 101             	10.34447    	0.0         	                	;
 102             	13.79906    	0.0         	                	;
 103             	11.61026    	0.0         	                	;
 104             	15.18584    	0.0         	                	;
 105             	9.16416     	0.0302      	                	;
 106             	11.58969    	0.0         	                	;
 107             	14.13041    	0.0         	                	;
 108             	10.39078    	0.0562      	                	;
 109             	9.19535     	0.0018      	                	;
 110             	11.26089    	0.0         	                	;
 111             	11.18737    	0.0         	                	;
 112             	13.1458     	0.0         	                	;
 113             	15.4267     	0.0         	                	;
 114             	13.57023    	0.0         	                	;
 115             	13.20703    	0.0         	                	;
 116             	10.50442    	0.0158      	                	;
 117             	18.18154    	0.0         	                	;
 118             	15.57192    	0.0         	                	;
 119             	13.25157    	0.0         	                	;
 120             	10.50062    	0.0022      	                	;
 121             	9.25218     	0.0032      	                	;
 122             	18.24579    	0.0         	                	;
 123             	18.24579    	0.0         	                	;
 124             	13.02958    	0.0         	                	;
 125             	9.26375     	0.0176      	                	;
 126             	18.31383    	0.0         	                	;
 127             	12.90154    	0.0         	                	;
 128             	18.07655    	0.1224      	                	;
 129             	13.14828    	0.0         	                	;
 130             	18.01944    	0.1012      	                	;
 131             	12.75606    	0.0         	                	;
 132             	15.83503    	0.0         	                	;
 133             	15.89896    	0.0011      	                	;
 134             	12.61782    	0.0         	                	;
 135             	12.65362    	0.0         	                	;
 136             	17.63505    	0.018       	                	;
 137             	12.44642    	0.0         	                	;
 138             	17.60753    	0.0011      	                	;
 139             	9.15932     	0.0119      	                	;
 140             	12.06937    	0.0         	                	;
 141             	12.68942    	0.0         	                	;
 142             	17.55248    	0.0536      	                	;
 143             	6.58417     	0.0518      	                	;
 144             	9.82881     	0.0         	                	;
 145             	12.49675    	0.0         	                	;
 146             	12.28956    	0.0         	                	;
 147             	12.19756    	0.0         	                	;
 148             	12.53255    	0.0         	                	;
 149             	9.73252     	0.0         	                	;
 150             	17.19624    	0.0014      	                	;
 151             	17.11473    	0.0         	                	;
 152             	16.26448    	0.0         	                	;
 153             	16.96039    	0.0094      	                	;
 154             	11.93738    	0.0         	                	;
 155             	11.35662    	0.0         	                	;
 156             	16.64001    	0.0         	                	;
 157             	16.28181    	0.0         	                	;
 158             	16.36328    	0.0         	                	;
 159             	16.31084    	0.0         	                	;
 160             	16.22921    	0.0         	                	;
 161             	12.82761    	0.0         	                	;
 162             	8.64291     	0.0         	                	;
 163             	11.23837    	0.0         	                	;
 164             	8.63235     	0.0         	                	;
 165             	15.75879    	0.0         	                	;
 166             	10.79347    	0.0         	                	;
 167             	12.66042    	0.0         	                	;
 168             	15.65794    	0.0         	                	;
 169             	9.23918     	0.0166      	                	;
 170             	8.58449     	0.0187      	                	;
 171             	15.52118    	0.0202      	                	;
 172             	10.76256    	0.0         	                	;
 173             	9.10714     	0.0324      	                	;
 174             	10.74728    	0.0         	                	;
 175             	8.05159     	0.0407      	                	;
 176             	19.11928    	0.0         	                	;
 177             	19.05545    	0.0         	                	;
 178             	8.03172     	0.0029      	                	;
 179             	18.96541    	0.0374      	                	;
 180             	8.04896     	0.0248      	                	;
 181             	12.88699    	0.0         	                	;
 182             	8.03535     	0.0137      	                	;
 183             	2.50898     	0.0029      	                	;
 184             	18.73881    	0.0025      	                	;
 185             	13.14966    	0.0         	                	;
 186             	8.97263     	0.0         	                	;
 187             	12.66532    	0.0         	                	;
 188             	19.16673    	0.036       	                	;
 189             	12.56241    	0.014       	                	;
 190             	7.94083     	0.0407      	                	;
 191             	7.40561     	0.0         	                	;
 192             	12.38809    	0.0         	                	;
 193             	7.38021     	0.0266      	                	;
 194             	8.97243     	0.0148      	                	;
 195             	5.99262     	0.0518      	                	;
 196             	18.24632    	0.0425      	                	;
 197             	5.96675     	0.0         	                	;
 198             	7.90532     	0.0         	                	;
 199             	12.19803    	0.0158      	                	;
 200             	19.27299    	0.014       	                	;
 201             	13.02479    	0.014       	                	;
 202             	8.96152     	0.0         	                	;
 203             	5.91794     	0.0         	                	;
 204             	12.09512    	0.0014      	                	;
 205             	4.7683      	0.0918      	                	;
 206             	12.07938    	0.0014      	                	;
 207             	8.94588     	0.0         	                	;
 208             	11.99222    	0.0392      	                	;
 209             	17.79457    	0.0         	                	;
 210             	13.00413    	0.0151      	                	;
 211             	17.80623    	0.0         	                	;
 212             	8.49559     	0.0         	                	;
 213             	17.56695    	0.0         	                	;
 214             	8.05271     	0.0         	                	;
 215             	5.88475     	0.0436      	                	;
 216             	15.32589    	0.0446      	                	;
 217             	9.28723     	0.0         	                	;
 218             	8.34376     	0.0148      	                	;
 219             	11.53009    	0.0133      	                	;
 220             	17.78963    	0.0288      	                	;
 221             	15.32977    	0.0342      	                	;
 222             	9.22307     	0.0187      	                	;
 223             	8.04083     	0.0         	                	;
 224             	5.89047     	0.0         	                	;
 225             	7.19913     	0.0626      	                	;
 226             	7.84082     	0.041       	                	;
 227             	19.51872    	0.0482      	                	;
 228             	8.12213     	0.0         	                	;
 229             	8.02884     	0.0         	                	;
 230             	8.01719     	0.0         	                	;
 231             	5.8938      	0.2963      	                	;
 232             	19.49612    	0.7574      	                	;
 233             	7.82245     	0.0         	                	;
 234             	7.14999     	0.0         	                	;
 235             	7.12462     	0.0313      	                	;
 236             	17.14141    	0.0868      	                	;
 237             	12.80146    	0.054       	                	;
 238             	4.7208      	0.0         	                	;
 239             	13.16138    	0.0155      	                	;
 240             	10.67093    	0.0         	                	;
 241             	8.26453     	0.0187      	                	;
 242             	10.68338    	0.0         	                	;
 243             	13.22831    	0.0259      	                	;
 244             	8.13308     	0.0         	                	;
 245             	10.71769    	0.0         	                	;
 246             	10.53888    	0.0176      	                	;
 247             	8.00485     	0.0         	                	;
 248             	10.49023    	0.0         	                	;
 249             	16.59649    	0.0734      	                	;
 250             	10.42644    	0.0115      	                	;
 251             	6.88956     	0.04        	                	;
 252             	7.73258     	0.0457      	                	;
 253             	10.37275    	0.0137      	                	;
 254             	10.33419    	0.0173      	                	;
 255             	16.20302    	0.0194      	                	;
 256             	17.51634    	0.0367      	                	;
 257             	16.05132    	0.0068      	                	;
 258             	17.47975    	0.0479      	                	;
 259             	6.82622     	0.0         	                	;
 260             	15.9596     	0.0018      	                	;
 261             	10.17059    	0.0119      	                	;
 262             	4.98851     	0.0536      	                	;
 263             	5.00463     	0.0         	                	;
 264             	7.77476     	0.0         	                	;
 265             	6.62819     	0.0828      	                	;
 266             	13.13998    	0.0421      	                	;
 267             	15.63976    	0.0133      	                	;
 268             	4.72348     	0.0         	                	;
 269             	9.84164     	0.0166      	                	;
 270             	9.81519     	0.0         	                	;
 271             	19.43291    	0.0         	                	;
 272             	5.1141      	0.2286      	                	;
 273             	15.64993    	0.0         	                	;
 274             	9.63557     	0.0248      	                	;
 275             	4.73941     	0.0         	                	;
 276             	8.09854     	0.0         	                	;
 277             	15.65055    	0.0         	                	;
 278             	15.45928    	0.0         	                	;
 279             	11.20317    	0.0216      	                	;
 280             	11.20317    	0.0428      	                	;
 281             	8.17825     	0.0         	                	;
 282             	4.88992     	0.0         	                	;
 283             	13.28281    	0.0         	                	;
 284             	4.76874     	0.3841      	                	;
 285             	6.32168     	0.0         	                	;
 286             	13.71406    	0.0202      	                	;
 287             	8.99309     	0.0         	                	;
 288             	4.89147     	0.2358      	                	;
 289             	13.32998    	0.0         	                	;
 290             	13.51411    	0.0         	                	;
 291             	13.73641    	0.0         	                	;
 292             	8.90345     	0.0         	                	;
 293             	6.40716     	0.1058      	                	;
 294             	13.35244    	0.0         	                	;
 295             	13.35244    	0.0         	                	;
 296             	8.91776     	0.0         	                	;
 297             	13.78358    	0.0         	                	;
 298             	14.68707    	0.0         	                	;
 299             	13.12791    	0.0         	                	;
 300             	8.94352     	0.0         	                	;
 301             	12.99095    	0.0328      	                	;
 302             	17.48034    	0.0133      	                	;
 303             	8.35811     	0.0277      	                	;
 304             	13.7744     	0.0         	                	;
 305             	8.37862     	0.0         	                	;
 306             	13.71706    	0.0         	                	;
 307             	11.35548    	0.0367      	                	;
 308             	11.35548    	0.0709      	                	;
 309             	8.39913     	0.0151      	                	;
 310             	13.63087    	0.0         	                	;
 311             	9.16407     	0.054       	                	;
 312             	19.3835     	0.0         	                	;
 313             	13.0025     	0.0         	                	;
 314             	19.51502    	0.0         	                	;
 315             	3.29596     	0.0504      	                	;
 316             	19.57692    	0.1127      	                	;
 317             	6.69305     	0.0666      	                	;
 318             	3.28802     	0.0         	                	;
 319             	10.71133    	0.0         	                	;
 320             	6.6852      	0.031       	                	;
 321             	3.29406     	0.022       	                	;
 322             	8.47972     	0.0634      	                	;
 323             	17.43131    	0.0         	                	;
 324             	13.03036    	0.0         	                	;
 325             	2.73699     	0.2898      	                	;
 326             	2.64738     	0.0         	                	;
 327             	2.60076     	0.0         	                	;
 328             	9.58139     	0.0         	                	;
 329             	9.53934     	0.0263      	                	;
 330             	17.27722    	0.0533      	                	;
 331             	3.31312     	0.4219      	                	;
 332             	17.18388    	0.0         	                	;
 333             	17.19169    	0.0018      	                	;
 334             	10.43164    	0.0554      	                	;
 335             	17.0655     	0.0112      	                	;
 336             	12.44443    	0.0         	                	;
 337             	10.41842    	0.0191      	                	;
 338             	2.62482     	0.0878      	                	;
 339             	2.62482     	0.0         	                	;
 340             	19.68223    	0.0         	                	;
 341             	6.55135     	0.0         	                	;
 342             	6.54901     	0.0144      	                	;
 343             	8.57118     	0.0335      	                	;
 344             	2.55484     	0.0         	                	;
 345             	2.49143     	0.0         	                	;
 346             	12.43475    	0.0         	                	;
 347             	19.6661     	0.0         	                	;
 348             	19.6661     	0.0         	                	;
 349             	19.60218    	0.0         	                	;
 350             	2.38907     	1.8634      	                	;
 351             	19.63392    	0.0         	                	;
 352             	19.63392    	0.0         	                	;
 353             	16.31498    	0.0         	                	;
 354             	19.44142    	0.0202      	                	;
 355             	6.13359     	0.0407      	                	;
 356             	9.41351     	0.0011      	                	;
 357             	19.57001    	0.0         	                	;
 358             	6.01934     	0.0         	                	;
 359             	9.42133     	0.0         	                	;
 360             	10.38064    	0.0115      	                	;
 361             	19.39884    	0.0659      	                	;
 362             	5.88541     	0.0414      	                	;
 363             	16.0888     	0.0205      	                	;
 364             	4.57599     	0.0         	                	;
 365             	5.63723     	0.0         	                	;
 366             	8.62835     	0.0         	                	;
 367             	2.43561     	0.0         	                	;
 368             	15.96118    	0.0         	                	;
 369             	5.36781     	0.0155      	                	;
 370             	15.3541     	0.018       	                	;
 371             	5.40983     	0.0         	                	;
 372             	5.41911     	0.0594      	                	;
 373             	2.45979     	0.0947      	                	;
 374             	8.85138     	0.0655      	                	;
 375             	15.35459    	0.0         	                	;
 376             	15.48185    	0.0148      	                	;
 377             	11.81772    	0.0         	                	;
 378             	5.33205     	0.0         	                	;
 379             	10.52652    	0.0         	                	;
 380             	5.31626     	0.1188      	                	;
 381             	11.73928    	0.0         	                	;
 382             	9.43898     	0.0022      	                	;
 383             	10.54669    	0.0011      	                	;
 384             	11.67005    	0.0         	                	;
 385             	9.41401     	0.0068      	                	;
 386             	10.55449    	0.0         	                	;
 387             	11.50794    	0.0508      	                	;
 388             	7.3302      	0.0403      	                	;
 389             	8.60912     	0.0         	                	;
 390             	17.01603    	0.0         	                	;
 391             	8.69343     	0.0281      	                	;
 392             	16.9878     	0.0         	                	;
 393             	7.47185     	0.0         	                	;
 394             	7.47185     	0.0227      	                	;
 395             	9.40436     	0.0209      	                	;
 396             	8.67979     	0.0         	                	;
 397             	9.4399      	0.0         	                	;
 398             	16.9259     	0.0328      	                	;
 399             	19.36041    	0.0         	                	;
 400             	19.35465    	0.0         	                	;
 401             	7.22238     	0.0         	                	;
 402             	7.20213     	0.0         	                	;
 403             	19.44868    	0.0187      	                	;
 404             	19.38471    	0.0562      	                	;
 405             	10.64429    	0.0263      	                	;
 406             	7.18217     	0.0         	                	;
 407             	9.55547     	0.0         	                	;
 408             	7.18213     	0.0         	                	;
 409             	15.8226     	0.0475      	                	;
 410             	12.58842    	0.0263      	                	;
 411             	8.47777     	0.0         	                	;
 412             	6.93367     	0.0176      	                	;
 413             	9.66658     	0.067       	                	;
 414             	7.8801      	0.0         	                	;
 415             	6.87967     	0.112       	                	;
 416             	18.15262    	0.0252      	                	;
 417             	7.95451     	0.0029      	                	;
 418             	16.654      	0.0281      	                	;
 419             	11.72637    	0.0         	                	;
 420             	13.03251    	0.0         	                	;
 421             	11.70586    	0.0328      	                	;
 422             	16.68457    	0.0         	                	;
 423             	19.11537    	0.0         	                	;
 424             	14.77042    	0.0284      	                	;
 425             	13.06093    	0.0         	                	;
 426             	8.74459     	0.0166      	                	;
 427             	17.22544    	0.0068      	                	;
 428             	9.98453     	0.0882      	                	;
 429             	8.24698     	0.0         	                	;
 430             	12.87764    	0.0274      	                	;
 431             	11.33513    	0.0         	                	;
 432             	18.52439    	0.0         	                	;
 433             	8.30548     	0.0173      	                	;
 434             	16.86802    	0.0         	                	;
 435             	5.6592      	0.0403      	                	;
 436             	11.32152    	0.013       	                	;
 437             	16.73058    	0.0353      	                	;
 438             	5.61271     	0.0         	                	;
 439             	13.01072    	0.0         	                	;
 440             	11.31467    	0.0         	                	;
 441             	13.05417    	0.0         	                	;
 442             	13.73464    	0.0184      	                	;
 443             	13.21184    	0.0         	                	;
 444             	11.00244    	0.0241      	                	;
 445             	16.59634    	0.0         	                	;
 446             	19.37476    	0.0         	                	;
 447             	9.16889     	0.0         	                	;
 448             	10.05815    	0.0086      	                	;
 449             	13.22437    	0.0         	                	;
 450             	13.25703    	0.0         	                	;
 451             	10.77297    	0.0122      	                	;
 452             	18.17279    	0.0518      	                	;
 453             	13.24472    	0.0         	                	;
 454             	13.28968    	0.0         	                	;
 455             	10.66839    	0.0155      	                	;
 456             	13.22437    	0.0         	                	;
 457             	10.16386    	0.0         	                	;
 458             	4.68814     	0.0         	                	;
 459             	4.60242     	0.0         	                	;
 460             	12.94073    	0.0         	                	;
 461             	7.86729     	0.0374      	                	;
 462             	7.87427     	0.0         	                	;
 463             	10.20607    	0.0         	                	;
 464             	12.84989    	0.0         	                	;
 465             	9.16232     	0.0         	                	;
 466             	7.51445     	0.018       	                	;
 467             	10.65689    	0.0         	                	;
 468             	9.20663     	0.0         	                	;
 469             	7.46193     	0.0436      	                	;
 470             	10.24387    	0.0         	                	;
 471             	9.25866     	0.0         	                	;
 472             	9.08156     	0.0         	                	;
 473             	12.99459    	0.0         	                	;
 474             	12.67008    	0.0         	                	;
 475             	7.48786     	0.0         	                	;