[TITLE]
Export input file via plugin ExportEpanetInpFiles. 

[JUNCTIONS]
;ID              	Elev        	Demand      	Pattern         
 1               	9.17958     	0.0         	                	;
 2               	9.53147     	0.0         	                	;
 3               	9.19121     	0.0         	                	;
 4               	9.51883     	0.0         	                	;
 5               	9.40909     	0.01        	                	;
 6               	9.38555     	0.0         	                	;
 7               	7.44161     	0.0         	                	;
 8               	9.3067      	0.0         	                	;
 9               	9.33739     	0.0         	                	;
 10              	9.31635     	0.0         	                	;
 11              	9.31635     	0.0         	                	;
 12              	8.82005     	0.01        	                	;
 13              	8.80709     	0.0         	                	;
 14              	7.24549     	0.0         	                	;
 15              	8.48861     	0.53        	                	;
 16              	8.30318     	0.15        	                	;
 17              	6.46925     	0.83        	                	;
 18              	6.235       	0.0         	                	;
 19              	6.19236     	0.0         	                	;
 20              	6.19236     	0.0         	                	;
 21              	9.21246     	0.21        	                	;
 22              	8.15013     	0.08        	                	;
 23              	6.36349     	0.0         	                	;
 24              	5.68165     	0.65        	                	;
 25              	7.9767      	0.0         	                	;
 26              	7.79402     	0.0         	                	;
 27              	7.52478     	0.05        	                	;
 28              	7.56479     	0.0         	                	;
 29              	5.47582     	0.0         	                	;
 30              	5.22057     	0.0         	                	;
 31              	5.32652     	0.0         	                	;
 32              	5.34777     	0.0         	                	;
 33              	5.11406     	0.17        	                	;
 34              	5.32652     	0.0         	                	;
 35              	8.16022     	0.36        	                	;
 36              	4.94351     	0.0         	                	;
 37              	5.51718     	0.0         	                	;
 38              	4.85852     	0.0         	                	;
 39              	7.31206     	0.0         	                	;
 40              	4.7057      	0.0         	                	;
 41              	7.89579     	0.0         	                	;
 42              	7.79535     	0.02        	                	;
 43              	7.12915     	0.02        	                	;
 44              	7.0258      	0.0         	                	;
 45              	6.64096     	0.04        	                	;
 46              	7.26872     	0.32        	                	;
 47              	6.5928      	0.06        	                	;
 48              	7.06576     	0.0         	                	;
 49              	7.03126     	0.06        	                	;
 50              	6.89074     	0.0         	                	;
 51              	6.89074     	0.08        	                	;
 52              	6.15269     	0.0         	                	;
 53              	6.15704     	0.0         	                	;
 54              	6.1405      	0.0         	                	;
 55              	6.60119     	0.0         	                	;
 56              	5.25259     	0.03        	                	;
 57              	5.69415     	0.0         	                	;
 58              	5.69415     	0.0         	                	;
 59              	4.70076     	2.06        	                	;
 60              	6.30425     	0.0         	                	;
 61              	5.6735      	0.0         	                	;
 62              	5.68321     	0.1         	                	;
 63              	6.52041     	0.76        	                	;
 64              	6.36348     	0.12        	                	;
 65              	4.79681     	0.0         	                	;
 67              	6.36348     	0.0         	                	;
 68              	6.35869     	0.0         	                	;
 69              	6.37029     	0.0         	                	;
 70              	6.43574     	0.0         	                	;
 71              	6.40877     	0.0         	                	;
 72              	2.85423     	0.0         	                	;
 73              	6.30437     	0.0         	                	;
 74              	2.95437     	0.0         	                	;
 75              	2.9155      	0.0         	                	;
 76              	6.14528     	0.0         	                	;
 77              	2.94428     	0.0         	                	;
 78              	2.95921     	0.0         	                	;
 79              	6.019       	0.0         	                	;
 80              	5.83007     	0.14        	                	;
 81              	6.02199     	0.0         	                	;
 82              	5.69937     	0.0         	                	;
 83              	5.53979     	0.23        	                	;
 84              	5.50081     	0.0         	                	;
 85              	4.07748     	0.07        	                	;
 86              	5.53857     	0.0         	                	;
 87              	5.54105     	0.0         	                	;
 89              	1.73113     	0.0         	                	;
 90              	1.81659     	0.0         	                	;
 91              	5.49841     	0.0         	                	;
 92              	5.88564     	0.0         	                	;
 93              	5.45826     	0.0         	                	;
 94              	6.0228      	0.0         	                	;
 95              	4.76392     	0.01        	                	;
 96              	4.73929     	0.0         	                	;
 97              	5.8384      	0.03        	                	;
 98              	7.99716     	0.23        	                	;
 99              	5.87057     	0.0         	                	;
 100             	1.95429     	0.0         	                	;
 101             	5.88741     	0.0         	                	;
 102             	7.9246      	0.39        	                	;
 103             	5.60845     	0.17        	                	;
 104             	1.96862     	0.0         	                	;
 105             	5.34971     	0.0         	                	;
 106             	5.43881     	0.0         	                	;
 107             	4.54524     	0.08        	                	;
 108             	5.36146     	0.0         	                	;
 109             	5.24184     	0.0         	                	;
 110             	4.48465     	0.01        	                	;
 111             	5.21963     	0.02        	                	;
 112             	1.92637     	0.0         	                	;
 113             	6.81733     	0.0         	                	;
 114             	5.5656      	0.0         	                	;
 115             	5.59318     	0.0         	                	;
 116             	5.02563     	0.23        	                	;
 117             	3.5712      	0.0         	                	;
 118             	4.5866      	0.01        	                	;
 119             	4.53813     	0.0         	                	;
 120             	4.49396     	0.0         	                	;
 121             	4.49825     	0.0         	                	;
 122             	5.698       	0.0         	                	;
 123             	4.45121     	0.0         	                	;
 124             	1.52978     	0.0         	                	;
 125             	4.69536     	0.0         	                	;
 126             	4.21391     	0.0         	                	;
 127             	6.53362     	0.29        	                	;
 128             	9.0321      	0.0         	                	;
 129             	1.95293     	0.88        	                	;
 130             	5.60715     	0.02        	                	;
 131             	6.42733     	0.0         	                	;
 132             	4.52271     	0.0         	                	;
 133             	5.49307     	0.0         	                	;
 134             	3.99287     	0.0         	                	;
 135             	4.43595     	0.0         	                	;
 136             	5.91209     	0.0         	                	;
 137             	5.55443     	0.0         	                	;
 138             	8.49392     	0.09        	                	;
 139             	5.96378     	0.08        	                	;
 140             	4.33964     	0.0         	                	;
 141             	3.7287      	0.0         	                	;
 142             	5.32282     	0.15        	                	;
 143             	5.76905     	0.0         	                	;
 144             	3.66484     	0.58        	                	;
 145             	5.98138     	0.0         	                	;
 146             	2.52429     	0.0         	                	;
 147             	5.45776     	0.0         	                	;
 148             	4.22422     	0.0         	                	;
 149             	2.47639     	0.0         	                	;
 150             	5.89388     	0.0         	                	;
 151             	3.36096     	0.0         	                	;
 152             	7.88015     	0.0         	                	;
 153             	7.86826     	0.0         	                	;
 154             	4.14243     	0.0         	                	;
 155             	3.30956     	0.21        	                	;
 156             	5.83208     	0.0         	                	;
 157             	4.14673     	0.0         	                	;
 158             	5.18983     	0.0         	                	;
 159             	5.42658     	0.06        	                	;
 160             	5.71421     	0.0         	                	;
 161             	4.14932     	0.66        	                	;
 162             	5.15103     	0.0         	                	;
 163             	5.65671     	0.0         	                	;
 164             	2.98229     	0.0         	                	;
 165             	2.89411     	0.0         	                	;
 166             	7.63241     	0.0         	                	;
 167             	2.38053     	0.0         	                	;
 168             	5.06142     	0.0         	                	;
 169             	2.91102     	0.02        	                	;
 170             	8.96136     	0.0         	                	;
 171             	8.94153     	0.0         	                	;
 172             	4.13549     	0.0         	                	;
 173             	4.11585     	0.0         	                	;
 174             	4.99556     	0.03        	                	;
 175             	5.4835      	0.2         	                	;
 176             	7.2828      	0.01        	                	;
 177             	5.00453     	0.0         	                	;
 178             	1.01557     	0.45        	                	;
 179             	8.68737     	0.02        	                	;
 180             	4.59415     	0.0         	                	;
 181             	2.09198     	0.0         	                	;
 182             	1.09927     	0.0         	                	;
 183             	2.08949     	0.0         	                	;
 184             	6.91742     	0.0         	                	;
 185             	3.8227      	0.02        	                	;
 186             	4.90753     	0.11        	                	;
 187             	4.89543     	0.05        	                	;
 188             	4.58056     	0.0         	                	;
 189             	6.79854     	0.0         	                	;
 190             	5.19957     	0.3         	                	;
 191             	2.01735     	0.0         	                	;
 192             	6.72236     	0.01        	                	;
 193             	5.16618     	0.0         	                	;
 194             	4.62015     	0.0         	                	;
 195             	4.76809     	0.0         	                	;
 196             	8.33223     	0.0         	                	;
 197             	4.61591     	0.0         	                	;
 198             	4.62687     	0.0         	                	;
 199             	8.206       	0.0         	                	;
 200             	4.68934     	0.0         	                	;
 201             	3.45682     	0.02        	                	;
 202             	6.01369     	0.0         	                	;
 203             	4.63359     	0.0         	                	;
 204             	5.03073     	0.0         	                	;
 205             	4.57411     	0.0         	                	;
 206             	4.41852     	0.0         	                	;
 207             	4.65127     	0.11        	                	;
 208             	1.39675     	0.0         	                	;
 209             	4.29708     	0.0         	                	;
 210             	3.11316     	0.0         	                	;
 211             	4.49463     	0.0         	                	;
 212             	4.83661     	0.0         	                	;
 213             	4.49463     	0.0         	                	;
 214             	5.67471     	0.71        	                	;
 215             	4.4161      	0.02        	                	;
 216             	1.3862      	0.0         	                	;
 217             	3.13465     	0.0         	                	;
 218             	5.67282     	0.0         	                	;
 219             	4.69281     	0.09        	                	;
 220             	5.63926     	0.0         	                	;
 221             	4.15682     	0.0         	                	;
 222             	4.67566     	0.0         	                	;
 223             	1.3955      	0.0         	                	;
 224             	4.14983     	0.02        	                	;
 225             	3.17006     	0.0         	                	;
 226             	1.06325     	1.19        	                	;
 227             	4.59743     	0.0         	                	;
 228             	4.34862     	0.0         	                	;
 229             	5.43797     	0.0         	                	;
 230             	0.90997     	0.0         	                	;
 231             	4.60179     	0.0         	                	;
 232             	7.37872     	0.48        	                	;
 233             	4.55285     	0.0         	                	;
 234             	3.95226     	0.0         	                	;
 235             	4.56711     	0.0         	                	;
 236             	0.96561     	0.0         	                	;
 237             	4.62949     	0.08        	                	;
 238             	4.25761     	0.0         	                	;
 239             	7.18781     	0.0         	                	;
 240             	3.86394     	0.05        	                	;
 241             	2.99519     	0.0         	                	;
 242             	0.98502     	0.67        	                	;
 243             	4.7009      	0.01        	                	;
 244             	5.13057     	0.0         	                	;
 245             	4.69541     	0.02        	                	;
 246             	7.07736     	0.0         	                	;
 247             	2.94373     	0.0         	                	;
 248             	8.64819     	0.0         	                	;
 249             	3.5338      	0.0         	                	;
 250             	2.92514     	0.0         	                	;
 251             	4.95549     	0.0         	                	;
 252             	4.66763     	0.0         	                	;
 253             	4.25758     	0.02        	                	;
 254             	4.65011     	0.0         	                	;
 255             	2.88797     	0.0         	                	;
 256             	2.88797     	0.0         	                	;
 257             	6.58191     	0.0         	                	;
 258             	0.92615     	0.0         	                	;
 259             	4.25527     	0.0         	                	;
 260             	8.93715     	0.0         	                	;
 261             	4.79116     	0.0         	                	;
 262             	4.64066     	0.0         	                	;
 263             	0.93475     	0.22        	                	;
 264             	3.5054      	0.0         	                	;
 265             	4.61912     	0.0         	                	;
 266             	6.41327     	0.0         	                	;
 267             	1.48272     	1.29        	                	;
 268             	4.28702     	0.0         	                	;
 269             	2.71652     	0.0         	                	;
 270             	4.61168     	0.0         	                	;
 271             	3.31577     	0.11        	                	;
 272             	4.62683     	0.0         	                	;
 273             	4.55447     	0.0         	                	;
 274             	6.12892     	0.0         	                	;
 275             	4.5827      	0.09        	                	;
 276             	2.65685     	0.0         	                	;
 277             	4.56392     	0.0         	                	;
 278             	2.58988     	0.0         	                	;
 279             	3.87034     	0.0         	                	;
 280             	3.25132     	0.0         	                	;
 281             	1.50972     	0.0         	                	;
 282             	1.16697     	0.0         	                	;
 283             	1.16533     	0.6         	                	;
 284             	3.21861     	0.0         	                	;
 285             	2.46253     	0.0         	                	;
 286             	7.92106     	0.51        	                	;
 287             	3.18953     	0.0         	                	;
 288             	3.88079     	0.04        	                	;
 289             	5.4689      	0.0         	                	;
 290             	3.13608     	0.0         	                	;
 291             	2.33979     	0.0         	                	;
 292             	4.43005     	0.0         	                	;
 293             	0.84409     	0.0         	                	;
 294             	4.29139     	0.05        	                	;
 295             	5.29055     	0.0         	                	;
 296             	5.27399     	0.0         	                	;
 297             	2.31921     	0.0         	                	;
 298             	4.39166     	0.0         	                	;
 299             	4.25484     	0.0         	                	;
 300             	4.24673     	0.0         	                	;
 301             	3.09206     	0.0         	                	;
 302             	1.49224     	0.0         	                	;
 303             	8.55257     	0.0         	                	;
 304             	4.35299     	0.0         	                	;
 305             	3.48897     	0.13        	                	;
 306             	4.22054     	0.0         	                	;
 307             	1.37766     	0.0         	                	;
 308             	4.15623     	0.0         	                	;
 309             	4.48704     	0.0         	                	;
 310             	1.11873     	0.07        	                	;
 311             	4.09687     	0.0         	                	;
 312             	4.50603     	0.0         	                	;
 313             	2.87046     	0.36        	                	;
 314             	4.06223     	0.0         	                	;
 315             	2.04037     	0.0         	                	;
 316             	4.77186     	0.01        	                	;
 317             	1.96508     	0.0         	                	;
 318             	3.99296     	0.0         	                	;
 319             	4.70498     	0.0         	                	;
 320             	3.6207      	0.06        	                	;
 321             	8.20969     	0.28        	                	;
 322             	4.37246     	0.0         	                	;
 323             	4.12586     	0.0         	                	;
 324             	4.20808     	0.0         	                	;
 325             	4.22091     	0.03        	                	;
 326             	1.57484     	0.35        	                	;
 327             	4.1899      	0.0         	                	;
 328             	7.2324      	0.02        	                	;
 329             	4.50982     	0.11        	                	;
 330             	3.88839     	0.0         	                	;
 331             	2.49158     	0.0         	                	;
 332             	1.42141     	0.0         	                	;
 333             	1.15014     	0.0         	                	;
 334             	4.10972     	0.0         	                	;
 335             	1.3936      	0.0         	                	;
 336             	1.36846     	0.0         	                	;
 337             	7.90104     	0.11        	                	;
 338             	4.20891     	0.0         	                	;
 339             	3.64113     	0.0         	                	;
 340             	4.15713     	0.0         	                	;
 341             	2.24833     	0.0         	                	;
 342             	2.85391     	0.0         	                	;
 343             	3.64228     	0.0         	                	;
 344             	4.17323     	0.0         	                	;
 345             	1.28235     	0.0         	                	;
 346             	2.79596     	0.0         	                	;
 347             	4.13755     	0.0         	                	;
 348             	2.19448     	0.0         	                	;
 349             	1.61608     	0.03        	                	;
 350             	3.53205     	0.0         	                	;
 351             	3.90982     	0.0         	                	;
 352             	3.53527     	0.0         	                	;
 353             	3.9122      	0.0         	                	;
 354             	2.15729     	0.0         	                	;
 355             	6.47111     	0.14        	                	;
 356             	1.55204     	0.0         	                	;
 357             	2.65307     	0.0         	                	;
 358             	3.25656     	0.0         	                	;
 359             	2.10345     	0.0         	                	;
 360             	3.51608     	0.0         	                	;
 361             	6.32807     	0.0         	                	;
 362             	6.32807     	0.07        	                	;
 363             	1.17596     	0.0         	                	;
 364             	2.03079     	0.0         	                	;
 365             	2.02041     	0.91        	                	;
 366             	0.5383      	0.09        	                	;
 367             	3.25764     	0.52        	                	;
 368             	3.7123      	0.0         	                	;
 369             	3.85558     	0.01        	                	;
 370             	0.29665     	0.0         	                	;
 371             	1.30443     	0.0         	                	;
 372             	1.73485     	0.0         	                	;
 373             	3.42125     	0.04        	                	;
 374             	3.51001     	0.0         	                	;
 375             	7.34969     	0.13        	                	;
 376             	3.41        	0.0         	                	;
 377             	5.75064     	0.0         	                	;
 378             	3.43149     	0.0         	                	;
 379             	1.60737     	0.0         	                	;
 380             	2.89771     	0.0         	                	;
 381             	3.39783     	0.0         	                	;
 382             	1.39009     	0.0         	                	;
 383             	3.60625     	0.01        	                	;
 384             	5.6305      	0.0         	                	;
 385             	2.37616     	0.0         	                	;
 386             	7.25759     	0.0         	                	;
 387             	0.49624     	0.0         	                	;
 388             	0.4979      	0.0         	                	;
 389             	5.56247     	0.0         	                	;
 390             	2.38155     	0.13        	                	;
 391             	3.27465     	0.3         	                	;
 392             	2.39285     	0.01        	                	;
 393             	1.43484     	0.23        	                	;
 394             	2.8605      	0.0         	                	;
 395             	0.67612     	0.0         	                	;
 396             	5.15639     	0.21        	                	;
 397             	3.27073     	0.0         	                	;
 398             	2.90753     	0.14        	                	;
 399             	1.23583     	0.0         	                	;
 400             	3.53018     	0.02        	                	;
 401             	3.31069     	0.0         	                	;
 402             	1.21697     	0.0         	                	;
 403             	2.80678     	0.0         	                	;
 404             	6.96725     	0.57        	                	;
 405             	4.45409     	0.0         	                	;
 406             	0.90013     	0.0         	                	;
 407             	2.37759     	0.0         	                	;
 408             	4.77227     	0.0         	                	;
 409             	2.35749     	0.32        	                	;
 410             	6.87227     	0.0         	                	;
 411             	3.32375     	0.84        	                	;
 412             	4.66574     	0.0         	                	;
 413             	3.29334     	0.0         	                	;
 414             	3.32771     	0.0         	                	;
 415             	2.32462     	0.0         	                	;
 416             	3.4541      	0.0         	                	;
 417             	4.57829     	0.24        	                	;
 418             	3.27775     	0.0         	                	;
 419             	1.16373     	0.0         	                	;
 420             	1.21129     	0.03        	                	;
 421             	2.32939     	0.0         	                	;
 422             	2.38585     	0.0         	                	;
 423             	3.39599     	0.0         	                	;
 424             	3.26216     	0.0         	                	;
 425             	2.35646     	0.0         	                	;
 426             	2.73237     	0.0         	                	;
 427             	1.27685     	0.06        	                	;
 428             	1.46532     	0.13        	                	;
 429             	1.1205      	0.55        	                	;
 430             	3.40191     	0.0         	                	;
 431             	6.32465     	0.0         	                	;
 432             	2.27894     	0.01        	                	;
 433             	3.17906     	0.1         	                	;
 434             	1.36013     	0.0         	                	;
 435             	1.42523     	0.15        	                	;
 436             	2.72577     	0.0         	                	;
 437             	1.5702      	0.0         	                	;
 438             	5.90142     	0.0         	                	;
 439             	1.59042     	0.0         	                	;
 440             	3.23585     	0.0         	                	;
 441             	3.21013     	0.0         	                	;
 442             	2.9826      	0.0         	                	;
 443             	2.90957     	0.0         	                	;
 444             	2.80986     	0.0         	                	;
 445             	5.78975     	0.67        	                	;
 446             	2.87724     	0.0         	                	;
 447             	3.1633      	0.01        	                	;
 448             	2.8725      	0.08        	                	;
 449             	2.87266     	0.0         	                	;
 450             	2.30128     	0.4         	                	;
 451             	2.91465     	0.0         	                	;
 452             	1.68953     	0.0         	                	;
 453             	1.68564     	0.08        	                	;
 454             	3.09076     	0.0         	                	;
 455             	2.83795     	0.01        	                	;
 456             	2.96342     	0.0         	                	;
 457             	2.96342     	0.0         	                	;
 458             	1.63098     	0.0         	                	;
 459             	1.66323     	0.0         	                	;
 460             	3.1495      	0.0         	                	;
 461             	5.39282     	0.0         	                	;
 462             	9.37361     	0.12        	                	;
 463             	2.77932     	0.02        	                	;
 464             	1.73694     	0.0         	                	;
 465             	2.94293     	0.0         	                	;
 466             	9.35036     	0.0         	                	;
 467             	5.31103     	0.0         	                	;
 468             	1.72362     	0.0         	                	;
 469             	2.83526     	0.0         	                	;
 470             	9.29748     	0.17        	                	;
 471             	1.68325     	0.04        	                	;
 472             	5.12522     	0.0         	                	;
 473             	3.34488     	0.01        	                	;
 474             	1.67169     	0.0         	                	;
 475             	3.35987     	0.0         	                	;
 476             	5.05304     	0.34        	                	;