[TITLE]
Export input file via plugin ExportEpanetInpFiles.  

[JUNCTIONS]
 2                                    12.7027
 3                                    14.6006
 4                                    13.4518
 5                                    13.3706
 6                                    11.1272
 7                                    15.7523
 8                                    11.0578
 9                                    10.5760
 10                                   13.0561
 11                                   13.0283
 12                                   10.4028
 13                                   13.4732
 14                                   13.2232
 15                                   13.0585
 16                                   13.2700
 17                                   13.3373
 18                                   14.1460
 19                                   14.0333
 20                                   13.5629
 21                                   13.2513
 22                                   13.1521
 23                                    9.6301
 24                                   11.9114
 25                                   11.9671
 26                                   11.9840
 27                                    8.7359
 28                                    8.5417
 29                                    8.5678
 30                                    8.3279
 31                                    8.3345
 32                                    8.3477
 33                                   10.5000
 34                                   10.4773
 35                                   10.4254
 36                                    6.1130
 37                                    6.3275
 38                                    6.6636
 39                                    7.7818
 40                                    5.8706
 41                                    6.4568
 42                                    7.6652
 43                                    5.8417
 44                                    7.2648
 45                                    6.0516
 46                                    6.0183
 47                                    7.1676
 48                                    5.7901
 49                                    6.5396
 50                                    6.5517
 51                                   12.3852
 52                                    6.5781
 53                                    6.7122
 55                                    6.6916
 56                                   13.3962
 58                                    6.6155
 59                                    6.5531
 60                                    6.5393
 61                                   13.4627
 62                                    6.4563
 63                                    6.5181
 64                                    6.3697
 65                                    6.4413
 66                                   12.2903
 67                                   13.5589
 68                                    6.3422
 69                                   12.3281
 70                                   11.3596
 71                                    6.3309
 72                                   11.3211
 73                                   10.0556
 75                                    6.3206
 76                                    4.8639
 77                                    4.8801
 78                                   11.0377
 79                                    4.9110
 80                                   10.9776
 81                                   10.8985
 82                                   12.7556
 83                                    4.4157
 84                                   12.8393
 85                                    9.4578
 86                                    4.4062
 87                                    5.1036
 88                                    4.4105
 90                                    9.1047
 91                                   14.0776
 92                                   14.0984
 93                                    6.2244
 94                                    6.3294
 95                                    6.4699
 96                                   13.3612
 97                                    6.4498
 98                                    7.9470
 99                                    7.9436
 100                                   7.9647
 101                                   7.2654
 102                                   3.0871
 103                                   4.0834
 104                                   7.2019
 105                                   9.6076
 106                                   7.9677
 107                                  13.7349
 108                                   5.9993
 109                                   3.0235
 110                                   6.0604
 111                                   7.6448
 112                                  13.8140
 113                                   6.1479
 114                                  13.8065
 115                                   7.5852
 116                                   2.9917
 117                                  13.7099
 118                                  13.6132
 119                                   6.4369
 120                                   7.1953
 121                                  14.7581
 122                                   2.3582
 123                                  14.8333
 124                                  12.8550
 125                                  12.8033
 126                                  12.7793
 127                                   2.3223
 128                                   2.3491
 129                                   2.6564
 130                                   6.4473
 131                                   6.4010
 132                                   6.3406
 133                                   6.2523
 134                                  13.6610
 135                                  13.6655
 136                                   1.9044
 137                                  13.5902
 138                                  13.5254
 139                                   6.3997
 140                                  13.6651
 141                                   6.4643
 142                                  11.2576
 143                                  14.6104
 144                                  11.2264
 145                                  14.5063
 146                                  11.1213
 147                                  13.0208
 148                                  12.9992
 149                                  12.9440
 150                                  14.3565
 151                                   2.1170
 152                                  14.3100
 153                                  14.3041
 154                                  14.3101
 155                                  14.3118
 156                                  13.7789
 157                                  14.2806
 158                                  13.6870
 159                                  11.8956
 160                                  13.6168
 161                                  11.6435
 162                                  11.5177
 163                                  13.5347
 164                                  13.4140
 165                                   6.3004
 166                                   6.2168
 167                                  10.1783
 168                                   6.1125
 169                                  13.3953
 170                                  13.0973
 171                                   9.7044
 172                                   6.2353
 173                                  13.0243
 174                                  13.3936
 175                                  14.7382
 176                                  11.0080
 177                                  14.7806
 178                                  10.8453
 179                                   2.2871
 180                                   2.1905
 181                                  10.7721
 182                                  10.7323
 183                                   2.2058
 184                                  13.3234
 185                                   6.3991
 186                                   2.2175
 187                                   6.2753
 188                                   5.9378
 189                                   6.1114
 190                                   9.7865
 191                                  13.3613
 192                                   6.1503
 193                                   9.7814
 194                                   2.7770
 195                                  13.3219
 196                                  14.8676
 197                                  11.2804
 198                                  13.2845
 199                                   9.7483
 200                                  13.2923
 201                                   9.6010
 202                                   2.7620
 203                                  12.6622
 204                                   2.7632
 205                                  12.5504
 206                                  14.8154
 207                                  14.8300
 208                                   2.7457
 209                                  12.1738
 210                                  11.9806
 211                                  13.2919
 212                                  11.8982
 213                                  11.8794
 214                                   2.1648
 215                                  13.3253
 216                                   2.0902
 217                                  11.8381
 218                                   1.9990
 219                                   1.7006
 220                                  11.7813
 221                                  13.3607
 222                                   9.6335
 223                                  11.0433
 224                                  15.7480
 225                                  13.3671
 226                                   9.4532
 227                                  13.3669
 228                                   1.9623
 229                                   9.2606
 230                                  10.4601
 231                                   1.9823
 232                                  10.3699
 233                                   9.1727
 234                                   9.0849
 235                                  15.7555
 236                                   8.5313
 237                                   8.3853
 238                                   6.2642
 239                                   9.6696
 240                                   6.0095
 241                                   5.6282
 242                                   9.6902
 243                                   9.6905
 244                                   9.4433
 245                                   8.6492
 246                                   9.4004
 247                                   8.5949
 248                                  13.4161
 249                                  13.4319
 250                                   5.1158
 251                                   9.0598
 252                                   9.0025
 253                                   8.7005
 254                                   4.9680
 255                                   8.5305
 256                                   4.8479
 257                                   4.7730
 258                                   8.3745
 259                                   6.9354
 260                                   9.7677
 261                                   9.7835
 262                                   8.1653
 263                                   8.0807
 264                                   8.0309
 265                                   2.8216
 266                                  16.0390
 267                                   1.7961
 268                                   8.4444
 269                                  15.8832
 270                                   2.5172
 271                                  15.7383
 274                                   6.8516
 275                                   2.1368
 276                                  10.1621
 277                                   2.2239
 278                                   2.2246
 279                                   6.5091
 280                                  15.0508
 281                                   6.4150
 282                                  14.9638
 283                                   6.2729
 284                                   8.4702
 285                                  14.8648
 286                                   3.0434
 287                                  14.9504
 288                                  11.2533
 289                                  14.9634
 290                                   4.8258
 291                                   3.3002
 292                                   4.2958
 293                                   4.4480
 294                                   4.2158
 295                                  14.8358
 296                                  16.3811
 297                                  14.1896
 298                                   4.0132
 299                                  14.1016
 300                                   4.4899
 301                                   4.6136
 302                                   3.7544
 303                                   3.8707
 304                                   3.9532
 305                                  11.6042
 306                                  13.2675
 307                                  16.2135
 308                                   8.1914
 309                                  12.5111
 310                                  12.9155
 311                                  12.5009
 312                                  12.9321
 313                                  12.4949
 314                                   9.4233
 315                                  12.9712
 316                                  15.1826
 317                                  12.3784
 318                                   8.3099
 319                                  12.2952
 320                                   8.3372
 321                                   2.6590
 322                                   3.8089
 323                                   8.3666
 324                                   2.5694
 325                                  11.3144
 326                                   2.4612
 327                                  11.2017
 328                                  12.2595
 329                                   6.3458
 330                                  11.0388
 331                                   2.4327
 332                                  15.0588
 333                                   2.4315
 334                                  15.0535
 335                                  16.1002
 336                                  11.0069
 337                                  16.0968
 338                                  15.0444
 339                                  10.9994
 340                                   9.4486
 341                                   3.6394
 342                                  13.2849
 343                                   9.4399
 344                                   3.6296
 345                                   3.6218
 346                                   9.4463
 347                                  14.4315
 348                                   6.7759
 349                                  14.4618
 350                                   9.3630
 351                                   6.7058
 352                                  12.9691
 353                                   9.3242
 354                                  14.4792
 355                                   6.6247
 356                                  14.4985
 357                                  12.8689
 358                                   6.3311
 359                                   6.1452
 360                                  14.2997
 361                                   8.5131
 362                                   8.5097
 363                                  15.7804
 364                                  16.0627
 365                                  15.7397
 366                                  13.9495
 367                                  16.0128
 368                                   8.5282
 369                                  13.7571
 370                                  13.6027
 371                                   8.5192
 372                                  13.5300
 373                                  15.8200
 374                                   8.4415
 375                                   8.3494
 376                                   4.5024
 377                                   4.5403
 378                                  12.8274
 379                                  14.4477
 380                                  12.8165
 381                                  14.3460
 382                                  14.1286
 383                                  14.2383
 384                                  14.1966
 385                                  12.8710
 386                                  12.8655
 387                                  15.6234
 388                                  15.6483
 389                                  15.6404
 390                                  15.6508
 391                                  15.6335
 392                                   7.3580
 393                                   4.3934
 394                                  15.8256
 395                                  14.4952
 396                                  15.8691
 397                                   7.0965
 398                                  15.5787
 399                                  15.5570
 400                                  15.8909
 401                                   6.2607
 402                                   6.1427
 403                                   6.0336
 404                                  14.6685
 405                                  15.7625
 406                                  15.9664
 407                                  12.9905
 408                                  15.9823
 409                                  15.6733
 410                                  15.2042
 411                                   5.2279
 412                                  15.1282
 413                                  15.4797
 414                                  15.4271
 415                                   7.8021
 416                                  15.3218
 417                                  12.8084
 418                                  14.5483
 419                                   4.4634
 420                                   7.7205
 421                                  14.5781
 422                                  14.6405
 423                                  12.7283
 424                                   7.6707
 425                                  10.8920
 426                                   7.6324
 427                                  15.7777
 428                                  14.5645
 429                                   4.5200
 430                                   7.6515
 431                                   4.3123
 432                                  14.3163
 433                                  14.2002
 434                                  15.6991
 435                                   7.5939
 436                                  15.6686
 437                                   2.5075
 438                                  15.4994
 439                                   9.9586
 440                                  10.9717
 441                                   4.5705
 442                                   4.5789
 443                                  13.9780
 444                                   6.7600
 445                                  14.5341
 446                                  14.4956
 447                                   6.4869
 448                                   4.0320
 449                                  12.5089
 450                                  12.4549
 451                                   6.3590
 452                                  15.0250
 453                                  12.3113
 454                                   6.3036
 455                                  14.9121
 456                                  14.0997
 457                                   5.8880
 458                                  13.5287
 459                                   4.6554
 460                                  12.2573
 461                                  13.4853
 462                                  10.6841
 463                                   5.2904
 464                                   5.1561
 465                                   4.6849
 466                                  13.1633
 467                                   4.6812
 468                                   9.4756
 469                                  10.5524
 470                                   4.6839
 471                                   7.7218
 472                                   4.6371
 473                                  12.4204
 474                                  14.3494
 475                                   4.5526
 476                                  12.2876
 477                                   4.5464
 478                                  13.2707
 479                                  13.1900
 480                                   4.4384
 481                                  10.3972
 482                                   4.3861
 483                                  10.3826
 484                                  12.7956
 485                                   9.2228
 486                                   3.3281
 487                                  11.5814
 488                                   4.1678
 489                                   9.2917
 490                                  13.8695
 491                                   3.2862
 492                                   7.6275
 493                                  12.5294
 494                                   7.6262
 495                                  11.2692
 496                                  11.2076
 497                                  11.1600
 498                                   3.8912
 499                                   4.2949
 500                                   4.0107
 501                                   3.9374
 502                                  13.5231
 503                                   9.5760
 504                                  10.8304
 505                                   3.4472
 506                                   3.3600
 507                                  10.7511
 508                                  11.9471
 509                                   7.4299
 510                                  10.5998
 511                                  11.8122
 512                                   3.0779
 513                                   6.5024
 514                                   7.4021
 515                                   6.5743
 516                                   6.6461
 517                                  10.4714
 518                                   6.7160
 519                                   3.6287
 520                                   3.1255
 521                                  10.4115
 522                                   3.1398
 523                                  11.3589
 524                                   5.5403
 525                                  12.9720
 526                                   2.8825
 527                                  10.2386
 528                                   2.8221
 529                                   6.9915
 530                                   7.5218
 531                                  10.8854
 532                                  12.8612
 533                                   3.5539
 534                                   4.3119
 535                                  12.8499
 536                                   3.6151
 537                                   7.5502
 538                                   2.7616
 539                                   5.3440
 540                                   5.3178
 541                                  10.6902
 542                                   2.7826
 543                                   2.7745
 544                                   6.8778
 545                                   7.5964
 546                                   6.8526
 547                                   7.6767
 548                                   3.7969
 549                                   4.3604
 550                                  10.3551
 551                                  10.2895
 552                                   4.3970
 553                                   3.6612
 554                                  10.2030
 555                                  11.9555
 556                                   3.6071
 557                                   5.3698
 558                                  11.8317
 559                                   6.7636
 560                                   4.4613
 561                                   8.1265
 562                                   3.5490
 563                                   5.4458
 564                                  11.7681
 565                                   6.7828
 566                                   5.4753
 567                                   4.5219
 568                                   4.5256
 569                                   3.9905
 570                                   3.2884
 571                                   4.0080
 572                                   4.5639
 573                                   9.0270
 574                                   8.0268
 575                                   4.5075
 576                                   9.0844
 577                                  11.4627
 578                                   3.3175
 579                                   8.0105
 580                                   4.4721
 581                                  11.4526
 582                                   7.9810
 583                                   4.6194
 584                                  11.4617
 585                                   9.2142
 586                                   4.0904
 587                                  11.2487
 588                                   6.8445
 589                                   2.8970
 590                                   4.1331
 591                                   6.8508
 592                                  10.9221
 593                                   6.8676
 594                                  10.8525
 595                                   8.4685
 596                                   8.3610
 597                                   8.2688
 598                                   7.9044
 599                                   7.0888
 600                                   7.9233
 601                                   7.9371
 602                                   7.1247
 603                                   5.9485
 604                                   5.0962
 605                                   7.8112
 606                                   7.7970
 607                                   6.9356
 608                                   6.2321
 609                                   7.4963
 610                                   6.9804
 611                                   7.4092
 612                                   5.2543
 613                                   5.2331
 614                                   7.0702
 615                                   5.2120
 616                                   8.8911
 617                                   6.8827
 618                                   8.8549
 619                                   6.8003
 620                                   6.3200
 621                                   4.4969
 622                                   4.5242
 623                                   5.1709
 624                                   8.7135
 625                                   6.1248
 626                                   5.9462
 627                                   8.6816
 628                                   5.9240
 629                                   8.6308
 630                                   5.9857
 631                                   5.9686
 632                                   5.9533
 633                                   5.9266
 634                                   5.9193
 635                                   4.6152
 636                                   5.8333
 637                                   7.7942
 638                                   5.3118
 639                                   7.7108
 640                                   5.3094
 641                                   5.4767
 642                                   4.5470
 643                                   5.3047
 644                                   5.2708
 645                                   3.4487
 646                                   5.1678
 647                                   4.5439
 648                                   4.8459
 649                                   4.5976
 650                                   2.7940
 651                                   4.6854
 652                                   2.8222
 653                                   2.6859
 654                                   6.9150
 655                                   3.5313
 656                                   3.4562
 657                                   3.2849