[TITLE]

[JUNCTIONS]
 J-1                                1002.9700
 J-10                                979.6668
 J-100                               956.1092
 J-1000                              972.1188
 J-1001                              967.6031
 J-1002                              933.9637
 J-1003                              983.7909
 J-1004                              960.6658
 J-1005                              973.2756
 J-1006                              993.1291
 J-1007                             1002.3630
 J-1008                              979.3283
 J-1009                              942.0645
 J-101                               976.5272
 J-1010                              965.8110
 J-1011                             1002.5740
 J-1012                              920.1646
 J-1013                              916.7900
 J-1014                              952.9443
 J-1015                              958.7740
 J-1016                              999.0527
 J-1017                              951.9656
 J-1018                             1001.1020
 J-1019                              983.7080
 J-102                               992.2281
 J-1020                              971.7684
 J-1021                              982.0586
 J-1022                              997.4865
 J-1023                              994.5577
 J-1024                              946.5315
 J-1025                              959.2247
 J-1026                              949.9792
 J-1027                              960.2643
 J-1028                              981.3967
 J-1029                              916.7931
 J-103                              1012.9230
 J-1030                              913.7842
 J-1031                              949.2464
 J-1032                              924.4985
 J-1033                              988.0477
 J-1034                             1026.6520
 J-1035                              958.2108
 J-1036                              977.0811
 J-1037                              946.2034
 J-1038                              987.3462
 J-1039                              937.6068
 J-104                               971.9023
 J-1040                              920.8923
 J-1041                              967.1247
 J-1042                              942.6869
 J-1043                              985.2496
 J-1044                              978.2369
 J-1045                              934.0785
 J-1046                              975.2743
 J-1047                              964.8017
 J-1048                             1005.3770
 J-1049                              956.8696
 J-105                               991.9036
 J-1050                              978.6112
 J-1051                             1014.9040
 J-1052                              996.6636
 J-1053                             1004.3880
 J-1054                              931.2023
 J-1055                              925.3909
 J-1056                              953.7402
 J-1057                              941.5421
 J-1058                              973.5477
 J-1059                              964.7429
 J-106                               960.9750
 J-1060                             1003.8650
 J-1061                             1041.3950
 J-1062                              974.0029
 J-1063                              975.1185
 J-1064                              989.3430
 J-1065                              997.9887
 J-1066                              939.9678
 J-1067                              906.6779
 J-1068                              918.0988
 J-1069                             1015.9030
 J-107                              1001.2600
 J-1070                             1018.2510
 J-1071                              986.2827
 J-1072                              963.1724
 J-1073                              994.2034
 J-1074                             1032.6850
 J-1075                              995.5018
 J-1076                             1005.2110
 J-1077                              975.1523
 J-1078                              931.0073
 J-1079                              986.9286
 J-108                               990.5401
 J-1080                              956.6635
 J-1081                              944.1874
 J-1082                              958.9731
 J-1083                              930.3757
 J-1084                              957.0897
 J-1085                             1001.3490
 J-1086                              970.9494
 J-1087                             1007.0230
 J-1088                             1017.0230
 J-1089                              980.9498
 J-109                               998.2533
 J-1090                              980.9944
 J-1091                             1005.1560
 J-1092                              925.4380
 J-1093                              941.1719
 J-1094                              950.7923
 J-1095                             1030.1070
 J-1096                              963.2252
 J-1097                              953.9495
 J-1098                              999.4023
 J-1099                              957.4346
 J-11                                973.3596
 J-110                               990.6684
 J-1100                              950.3278
 J-1101                              926.8498
 J-1102                             1004.6190
 J-1103                             1004.2320
 J-1104                              989.4683
 J-1105                              980.8552
 J-1106                              958.5110
 J-1107                              956.5433
 J-1108                             1004.5190
 J-1109                             1009.7950
 J-111                               991.2919
 J-1110                              966.8722
 J-1111                              950.9268
 J-1112                              988.2986
 J-1113                             1001.3640
 J-1114                             1014.7880
 J-1115                              964.4872
 J-1116                              991.4536
 J-1117                              990.4918
 J-1118                              997.3438
 J-1119                              970.6922
 J-112                               974.1344
 J-1120                             1017.8430
 J-1121                              961.7057
 J-1122                              944.0974
 J-1123                              964.3712
 J-1124                              954.4607
 J-1125                              957.1547
 J-1126                             1004.4980
 J-1127                              999.8121
 J-1128                              956.3874
 J-1129                              982.9026
 J-113                               927.1782
 J-1130                              985.4974
 J-1131                              938.6133
 J-1132                              950.8669
 J-1133                              967.3861
 J-1134                             1000.2760
 J-1135                              989.1021
 J-1136                              995.6379
 J-1137                              975.0519
 J-1138                              991.8292
 J-1139                              983.3718
 J-114                               948.9658
 J-1140                              980.1962
 J-1141                              968.5593
 J-1142                              983.3204
 J-1143                              997.9429
 J-1144                              983.7407
 J-1145                              979.3095
 J-1146                              937.1878
 J-1147                              961.5646
 J-1148                              978.7356
 J-1149                              967.9286
 J-115                               927.1988
 J-1150                              966.0347
 J-1151                              979.8522
 J-1152                              930.2170
 J-1153                              978.4308
 J-1154                             1013.9920
 J-1155                              949.6728
 J-1156                              970.4050
 J-1157                              999.6797
 J-1158                              965.3118
 J-1159                              986.0013
 J-116                               962.9157
 J-1160                             1000.3600
 J-1161                              989.2116
 J-1162                              995.0939
 J-1163                              978.9081
 J-1164                              979.2819
 J-1165                              970.2353
 J-1166                              953.3029
 J-1167                             1039.6610
 J-1168                             1018.9190
 J-1169                             1038.9580
 J-117                              1007.4350
 J-1170                              976.4023
 J-1171                              969.3887
 J-1172                              938.2195
 J-1173                             1004.0120
 J-1174                              949.3094
 J-1175                              949.6328
 J-1176                              970.5121
 J-1177                             1001.5080
 J-1178                             1018.5630
 J-1179                              957.4712
 J-118                               935.8173
 J-1180                             1007.6910
 J-1181                              949.7055
 J-1182                              992.4955
 J-1183                              989.4885
 J-1184                              995.3223
 J-1185                              955.5746
 J-1186                              965.1296
 J-1187                              982.5637
 J-1188                              943.3073
 J-1189                              951.1948
 J-119                               929.3659
 J-1190                              960.8735
 J-1191                              977.3381
 J-1192                              949.0704
 J-1193                              966.6705
 J-1194                              961.7446
 J-1195                              958.9775
 J-1196                             1012.8900
 J-1197                             1001.6620
 J-1198                              977.4802
 J-1199                              944.6666
 J-12                                985.2566
 J-120                               980.2245
 J-1200                             1006.1300
 J-1201                             1001.5940
 J-1202                              977.3764
 J-1203                              967.2025
 J-1204                              956.3854
 J-1205                              992.1110
 J-1206                              999.2260
 J-1207                             1021.8660
 J-1208                              976.0049
 J-1209                              991.8210
 J-121                               955.6276
 J-1210                              909.9061
 J-1211                              910.0126
 J-1212                              992.6047
 J-1213                              983.9036
 J-1214                              989.1268
 J-1215                              961.8889
 J-1216                             1005.9270
 J-1217                              941.2625
 J-1218                              993.8394
 J-1219                             1015.8510
 J-122                               994.5997
 J-1220                              964.1030
 J-1221                             1043.4030
 J-1222                              978.7341
 J-1223                              972.4727
 J-1224                              979.4493
 J-1225                             1013.1630
 J-1226                             1011.7440
 J-1227                              965.2044
 J-1228                             1009.8910
 J-1229                             1033.9680
 J-123                              1003.2780
 J-1230                             1039.6020
 J-1231                              970.3848
 J-1232                              993.6591
 J-1233                              968.9734
 J-1234                              970.6243
 J-1235                              964.8383
 J-1236                              992.5005
 J-1237                              979.2516
 J-1238                              992.2137
 J-1239                              986.0309
 J-124                              1001.2060
 J-1240                              967.4946
 J-1241                              978.6226
 J-1242                             1006.5180
 J-1243                              992.1884
 J-1244                             1003.3680
 J-1245                             1002.8470
 J-1246                              981.4207
 J-1247                              994.4280
 J-1248                              932.2193
 J-1249                              925.4407
 J-125                              1002.9190
 J-1250                              939.2913
 J-1251                              953.8093
 J-1252                              943.8216
 J-1253                              978.0497
 J-1254                             1001.5600
 J-1255                              985.8475
 J-1256                              969.9594
 J-1257                              990.3142
 J-1258                              994.4700
 J-1259                             1014.1910
 J-126                               917.6212
 J-1260                              996.5742
 J-1261                              998.4230
 J-1262                              966.6713
 J-1263                              987.5566
 J-1264                              945.4722
 J-1265                              957.0461
 J-1266                              988.6458
 J-1267                              944.7103
 J-1268                              934.9223
 J-1269                              928.6105
 J-127                               936.5127
 J-1270                              901.2142
 J-1271                              973.7873
 J-1272                              959.0850
 J-1273                              977.0593
 J-1274                             1009.1230
 J-1275                              994.6277
 J-1276                              962.9375
 J-1277                             1002.2070
 J-1278                             1027.1230
 J-1279                              931.3522
 J-128                               936.4592
 J-1280                              931.4869
 J-1281                             1041.4120
 J-1282                              927.7090
 J-1283                              948.1352
 J-1284                              999.9688
 J-1285                             1004.9530
 J-1286                              980.4718
 J-1287                              953.7148
 J-1288                              902.9759
 J-1289                              996.6667
 J-129                              1000.8700
 J-1290                              974.6605
 J-1291                              911.8730
 J-1292                              989.5570
 J-1293                              970.0639
 J-1294                              949.8943
 J-1295                             1022.0480
 J-1296                              993.1304
 J-1297                              945.2074
 J-1298                              981.4892
 J-1299                              982.4128
 J-13                                919.0184
 J-130                               927.6636
 J-1300                              977.2169
 J-1301                              972.1398
 J-1302                              947.4169
 J-1303                              996.5115
 J-1304                             1003.6900
 J-1305                             1014.3210
 J-1306                             1015.5410
 J-1307                              991.6318
 J-1308                              998.0964
 J-1309                              997.2444
 J-131                               926.4938
 J-1310                             1014.2900
 J-1311                             1015.8650
 J-1312                              978.2070
 J-1313                             1005.7060
 J-1314                              948.9382
 J-1315                              957.6874
 J-1316                              998.4942
 J-1317                              923.0468
 J-1318                              928.7590
 J-1319                              928.2106
 J-132                              1014.8000
 J-133                               959.2430
 J-134                               954.6754
 J-135                               953.2007
 J-136                               931.7145
 J-137                               937.5491
 J-138                               931.5330
 J-139                               927.8629
 J-14                                939.3245
 J-140                               955.7383
 J-141                               897.3025
 J-142                               952.1076
 J-143                               967.6666
 J-144                               952.8359
 J-145                               905.4386
 J-146                               968.6281
 J-147                               997.1206
 J-148                               976.4983
 J-149                              1001.5150
 J-15                                977.4283
 J-150                              1004.5300
 J-151                               933.3170
 J-152                               998.0096
 J-153                               987.4785
 J-154                               999.7343
 J-155                               981.0491
 J-156                              1001.6750
 J-157                               989.6042
 J-158                               993.0400
 J-159                               960.1518
 J-16                                977.3620
 J-160                               961.9720
 J-161                              1014.7010
 J-162                               956.3618
 J-163                               961.1016
 J-164                               965.6511
 J-165                              1026.6690
 J-166                               935.9556
 J-167                               967.0713
 J-168                               991.3670
 J-169                               984.3192
 J-17                                977.7300
 J-170                               980.4084
 J-171                               939.7405
 J-172                               930.7090
 J-173                               938.5123
 J-174                               999.4957
 J-175                              1006.2120
 J-176                              1004.6740
 J-177                               992.1135
 J-178                              1002.8790
 J-179                              1011.5990
 J-18                                943.7672
 J-180                               976.9026
 J-181                               967.2640
 J-182                               990.5605
 J-183                               978.0695
 J-184                               985.4453
 J-185                              1004.8410
 J-186                              1010.6850
 J-187                               928.3279
 J-188                              1007.3160
 J-189                               943.9777
 J-19                                945.4560
 J-190                               926.4111
 J-191                               959.9783
 J-192                               953.6035
 J-193                               980.7574
 J-194                              1002.0970
 J-195                              1009.8740
 J-196                               976.8041
 J-197                               977.5991
 J-198                              1006.6780
 J-199                               994.2180
 J-2                                1013.4440
 J-20                                935.2312
 J-200                               973.3180
 J-201                              1010.8330
 J-202                              1045.8410
 J-203                               956.3765
 J-204                               922.4658
 J-205                               934.4752
 J-206                               959.4948
 J-207                               949.7066
 J-208                               984.7419
 J-209                               982.9194
 J-21                                956.0571
 J-210                               945.6422
 J-211                               995.9433
 J-212                               951.6300
 J-213                               955.4329
 J-214                              1006.4210
 J-215                               988.3768
 J-216                               940.7040
 J-217                               971.3254
 J-218                               967.2204
 J-219                               924.0215
 J-22                                984.1351
 J-220                               995.2626
 J-221                              1003.7710
 J-222                              1004.1780
 J-223                               973.1974
 J-224                              1005.7160
 J-225                               998.5806
 J-226                               953.6805
 J-227                               948.8869
 J-228                               961.9694
 J-229                               894.8397
 J-23                                971.2469
 J-230                               979.7910
 J-231                               984.2581
 J-232                               958.1100
 J-233                               965.6917
 J-234                               975.8906
 J-235                               964.2112
 J-236                               986.8278
 J-237                               984.1649
 J-238                              1009.5730
 J-239                              1008.4420
 J-24                                922.2437
 J-240                               990.3167
 J-241                              1001.9270
 J-242                               868.4962
 J-243                               918.3853
 J-244                               950.9565
 J-245                               906.9763
 J-246                               907.5858
 J-247                               951.4333
 J-248                               964.6561
 J-249                               992.6504
 J-25                                922.4665
 J-251                               975.0247
 J-252                               871.6448
 J-253                               964.9150
 J-254                               893.3716
 J-255                               968.5082
 J-256                               941.4952
 J-257                               966.1162
 J-258                               983.5428
 J-259                               966.8285
 J-26                                958.5306
 J-260                               922.1583
 J-261                               969.0532
 J-262                               968.0092
 J-263                               955.4261
 J-264                               957.6119
 J-265                               957.8082
 J-266                               983.5588
 J-267                               994.8738
 J-268                               984.3740
 J-269                               940.9149
 J-27                                948.2709
 J-270                               929.8690
 J-271                               953.8288
 J-272                               956.0044
 J-273                               950.0097
 J-274                               943.8389
 J-275                               957.0503
 J-276                               975.2864
 J-277                               974.2706
 J-278                               992.6700
 J-279                               962.8785
 J-28                                976.2681
 J-280                               978.2803
 J-281                               980.7221
 J-282                               957.5770
 J-283                               956.8646
 J-284                              1006.7530
 J-285                              1002.0840
 J-286                               977.4785
 J-287                               997.3879
 J-288                               962.7720
 J-289                               974.5946
 J-29                               1005.5180
 J-290                               968.0099
 J-291                               874.3233
 J-292                               890.4329
 J-293                               935.6721
 J-294                               942.2191
 J-295                               963.4302
 J-296                               943.3119
 J-297                               924.9673
 J-298                               921.5408
 J-299                               921.2364
 J-3                                 948.0725
 J-30                               1011.2170
 J-300                               963.0144
 J-301                               950.3173
 J-302                               910.3911
 J-303                               895.6703
 J-304                               953.6496
 J-305                               999.1389
 J-306                               996.0826
 J-307                               991.3058
 J-308                               983.2426
 J-309                               999.7546
 J-31                               1014.4290
 J-310                               977.1906
 J-311                               982.8114
 J-312                               952.0522
 J-313                               966.7690
 J-314                               915.8222
 J-315                               920.8268
 J-316                               981.9182
 J-317                               971.2548
 J-318                               988.2610
 J-319                               997.0618
 J-32                                965.5231
 J-320                               983.0320
 J-321                               957.3658
 J-322                               987.8537
 J-323                                 0.0000
 J-324                               977.0001
 J-325                               977.0001
 J-326                              1015.6120
 J-327                               946.1853
 J-328                               936.8224
 J-329                               982.4195
 J-33                                964.2664
 J-330                               996.5290
 J-331                              1006.4470
 J-332                               999.9435
 J-333                               962.7276
 J-334                              1007.5040
 J-335                               992.0033
 J-336                               994.5223
 J-337                               992.0061
 J-338                               949.1984
 J-339                               949.8472
 J-34                               1013.5890
 J-340                               998.1135
 J-341                               968.7280
 J-342                               992.2912
 J-343                               983.7371
 J-344                               975.1001
 J-345                               960.4846
 J-346                              1016.1170
 J-347                              1009.3170
 J-348                               979.0323
 J-349                               964.3492
 J-35                               1016.5080
 J-350                              1009.0730
 J-351                               961.4088
 J-352                               992.2293
 J-353                               920.5533
 J-354                               961.3860
 J-355                              1035.2240
 J-356                               924.4142
 J-357                               925.8769
 J-358                               998.6989
 J-359                              1003.4800
 J-36                                985.0263
 J-360                               934.9817
 J-361                               936.8458
 J-362                               986.9753
 J-363                              1002.1140
 J-364                               948.5294
 J-365                               991.6803
 J-366                               988.8966
 J-367                               960.8356
 J-368                               958.8862
 J-369                               981.5674
 J-37                               1021.1370
 J-370                               983.2837
 J-371                               958.4985
 J-372                               997.2181
 J-373                              1006.7120
 J-374                               999.3461
 J-375                               953.1638
 J-376                               954.0239
 J-377                               970.2153
 J-378                               942.9616
 J-379                               994.6887
 J-38                               1016.8590
 J-380                              1005.8110
 J-381                               988.3283
 J-382                               977.6478
 J-383                               986.8192
 J-384                               924.2747
 J-385                               954.1343
 J-386                               954.0417
 J-387                               983.0082
 J-388                               970.6646
 J-389                               957.3184
 J-39                               1015.0560
 J-390                               950.0828
 J-391                               979.9749
 J-392                               958.3466
 J-393                               956.9101
 J-394                               965.7910
 J-395                               959.3254
 J-396                               932.7084
 J-397                               918.9542
 J-398                               912.6294