[TITLE]

[JUNCTIONS]
 J-1                                 611.3897
 J-10                                545.9175
 J-100                               705.7985
 J-101                               640.0722
 J-102                               702.9700
 J-103                               705.2352
 J-104                               646.3833
 J-105                               668.9732
 J-106                               699.1730
 J-107                               647.2618
 J-108                               690.9811
 J-109                               701.0000
 J-11                                637.2947
 J-110                               670.4779
 J-111                               573.2955
 J-112                               689.9996
 J-113                               703.3193
 J-114                               582.1908
 J-115                               627.2476
 J-116                               661.1915
 J-117                               651.1648
 J-118                               624.8696
 J-119                               612.3486
 J-12                                593.7883
 J-120                               653.7983
 J-121                               648.3290
 J-122                               648.2589
 J-123                               662.4215
 J-124                               661.3864
 J-125                               688.9498
 J-126                               654.0396
 J-127                               588.2053
 J-128                               667.5834
 J-129                               642.8438
 J-13                                670.2325
 J-130                               673.0019
 J-131                               672.2740
 J-132                               671.2997
 J-133                               703.3038
 J-134                               670.3339
 J-135                               561.1207
 J-136                               680.8624
 J-137                               681.1472
 J-138                               671.3608
 J-14                                673.0455
 J-140                               669.1882
 J-141                               681.6787
 J-142                               679.1291
 J-143                               683.0000
 J-144                               667.4946
 J-145                               655.6299
 J-146                               664.2756
 J-147                               653.7028
 J-148                               599.9139
 J-149                               586.0212
 J-15                                661.9545
 J-150                               663.2162
 J-151                               670.0553
 J-152                               658.9560
 J-153                               675.3078
 J-154                               661.5909
 J-155                               598.4144
 J-156                               622.5045
 J-157                               613.1131
 J-158                               599.1604
 J-159                               651.9081
 J-16                                669.4413
 J-160                               659.7002
 J-161                               672.8035
 J-162                               671.9999
 J-163                               677.1188
 J-164                               660.3669
 J-165                               670.9658
 J-166                               651.3640
 J-167                               651.1495
 J-168                               683.8399
 J-169                               582.1436
 J-17                                676.3677
 J-170                               662.4749
 J-171                               531.3535
 J-172                               528.0164
 J-173                               547.9309
 J-174                               550.2088
 J-175                               652.9064
 J-176                               668.0862
 J-177                               687.1208
 J-178                               656.4954
 J-179                               653.8172
 J-18                                661.5563
 J-180                               678.9312
 J-181                               660.5959
 J-182                               665.0781
 J-183                               672.2737
 J-184                               706.1798
 J-185                               698.8600
 J-186                               604.2810
 J-187                               619.6113
 J-188                               593.2393
 J-189                               620.5963
 J-19                                669.8918
 J-190                               535.0140
 J-191                               672.9089
 J-192                               698.6069
 J-194                               684.6140
 J-195                               603.9262
 J-196                               664.9097
 J-197                               702.5270
 J-198                               654.2453
 J-199                               561.3089
 J-2                                 644.8513
 J-20                                641.9392
 J-200                               586.3203
 J-201                               560.7526
 J-202                               540.9995
 J-203                               529.6254
 J-204                               623.8754
 J-205                               608.3518
 J-206                               701.8610
 J-207                               704.9999
 J-208                               705.9305
 J-209                               702.2105
 J-21                                621.1598
 J-210                               698.0419
 J-211                               652.7701
 J-212                               706.6829
 J-213                               567.4011
 J-214                               585.9201
 J-215                               660.2689
 J-215a                              593.4382
 J-216                               687.7719
 J-217                               720.2726
 J-218                               580.5884
 J-219                               659.6726
 J-22                                567.7947
 J-220                               589.2892
 J-221                               659.2394
 J-222                               652.6212
 J-223                               635.1250
 J-224                               634.5322
 J-225                               631.4617
 J-226                               640.8549
 J-227                               618.5958
 J-228                               553.4232
 J-229                               551.2760
 J-23                                640.7189
 J-230                               553.4232
 J-231                               638.4586
 J-232                               643.9478
 J-233                               666.3503
 J-234                               681.5925
 J-235                               711.9325
 J-236                               620.9119
 J-237                               655.5486
 J-238                               587.7800
 J-239                               662.4548
 J-24                                647.9995
 J-240                               704.1571
 J-242                               638.6282
 J-243                               659.9285
 J-244                               653.8528
 J-245                               672.8326
 J-246                               661.8329
 J-247                               681.3190
 J-248                               653.8260
 J-249                               616.2586
 J-25                                591.6583
 J-250                               580.0739
 J-251                               609.9346
 J-252                               593.6077
 J-253                               528.5584
 J-254                               535.5576
 J-255                               665.9338
 J-256                               636.6573
 J-257                               584.5164
 J-258                               715.1060
 J-259                               708.9807
 J-26                                652.4172
 J-260                               651.6981
 J-261                               639.2839
 J-262                               693.4462
 J-263                               596.9510
 J-264                               590.3044
 J-265                               574.9140
 J-266                               601.3432
 J-267                               589.5570
 J-268                               568.9000
 J-269                               670.6152
 J-27                                635.7896
 J-270                               684.4353
 J-271                               567.2652
 J-272                               605.6317
 J-273                               675.9500
 J-274                               545.5644
 J-275                               674.1492
 J-276                               645.7823
 J-277                               643.9767
 J-278                               542.6953
 J-279                               533.7531
 J-28                                652.7073
 J-280                               542.9407
 J-281                               667.1216
 J-282                               621.3289
 J-283                               608.9711
 J-284                               561.0002
 J-285                               552.4173
 J-286                               616.6290
 J-287                               615.5096
 J-288                               631.3071
 J-289                               630.3802
 J-29                                651.8645
 J-290                               642.0000
 J-291                               670.9255
 J-292                               671.0214
 J-293                               679.0461
 J-294                               665.2310
 J-295                               603.6039
 J-296                               618.0672
 J-297                               683.1727
 J-298                               673.8575
 J-299                               683.2080
 J-3                                 704.5603
 J-30                                660.8740
 J-300                               674.1644
 J-301                               652.5364
 J-302                               667.8233
 J-303                               643.1302
 J-304                               561.8380
 J-305                               579.0892
 J-306                               636.6440
 J-307                               594.6923
 J-308                               662.5485
 J-309                               667.7350
 J-31                                671.4662
 J-310                               536.7413
 J-311                               491.0113
 J-312                               585.4805
 J-313                               629.2569
 J-314                               608.2317
 J-315                               514.5867
 J-316                               678.0001
 J-317                               692.4381
 J-318                               601.8991
 J-319                               540.4709
 J-32                                625.6386
 J-320                               537.6797
 J-321                               614.7097
 J-322                               648.0810
 J-323                               635.2400
 J-324                               627.2320
 J-325                               585.8162
 J-326                               639.5627
 J-327                               638.1283
 J-328                               640.6234
 J-329                               668.1897
 J-33                                585.1734
 J-330                               583.6055
 J-331                               627.3813
 J-332                               605.5622
 J-333                               548.2193
 J-334                               552.8684
 J-335                               584.4908
 J-336                               581.1183
 J-337                               559.8429
 J-338                               551.3201
 J-339                               670.7141
 J-34                                639.8541
 J-340                               701.0293
 J-341                               703.9989
 J-342                               588.3627
 J-343                               564.8101
 J-344                               698.4418
 J-345                               697.1221
 J-346                               667.8207
 J-347                               685.0993
 J-348                               611.2399
 J-349                               640.9830
 J-35                                666.8081
 J-350                               618.4811
 J-351                               549.4897
 J-352                               605.8963
 J-353                               629.8826
 J-354                               624.1177
 J-355                               689.4954
 J-356                               690.2985
 J-357                               702.8609
 J-358                               702.9841
 J-359                               684.9272
 J-36                                638.7365
 J-360                               682.2211
 J-361                               654.6603
 J-362                               668.9615
 J-363                               709.1883
 J-364                               708.9263
 J-365                               689.5886
 J-366                               689.8300
 J-367                               612.7321
 J-368                               604.8912
 J-369                               583.7908
 J-37                                689.8104
 J-370                               599.8170
 J-371                               642.1349
 J-372                               601.9686
 J-373                               639.5333
 J-374                               554.2187
 J-375                               711.4459
 J-376                               701.3586
 J-377                               700.9207
 J-378                               699.9644
 J-379                               707.0911
 J-38                                649.4333
 J-380                               675.1678
 J-381                               682.5584
 J-382                               600.0197
 J-383                               634.2656
 J-384                               638.9119
 J-385                               683.3463
 J-386                               690.6075
 J-387                               647.4901
 J-388                               654.2389
 J-389                               699.0000
 J-39                                659.2862
 J-390                               639.7813
 J-391                               688.5449
 J-392                               691.7328
 J-393                               685.8435
 J-394                               608.2966
 J-395                               622.4385
 J-396                               635.9316
 J-397                               636.1953
 J-398                               638.8102
 J-399                               632.8221
 J-4                                 703.7249
 J-40                                640.0374
 J-400                               706.5521
 J-401                               669.3935
 J-402                               688.6606
 J-403                               637.0497
 J-404                               663.7161
 J-405                               641.0000
 J-406                               542.1808
 J-407                               528.7239
 J-408                               588.5675
 J-409                               639.7154
 J-41                                663.6583
 J-410                               629.2969
 J-411                               693.8269
 J-412                               644.2049
 J-413                               650.1973
 J-414                               697.3550
 J-415                               696.2896
 J-416                               700.0205
 J-417                               696.9081
 J-418                               482.5705
 J-419                               491.5032
 J-42                                660.9106
 J-420                               695.9309
 J-421                               695.6784
 J-422                               706.0865
 J-423                               672.0674
 J-424                               708.4379
 J-425                               681.9316
 J-426                               705.5588
 J-427                               699.3408
 J-428                               671.9526
 J-429                               700.0000
 J-43                                669.0306
 J-430                               700.0000
 J-431                               679.7358
 J-432                               687.1420
 J-433                               640.9989
 J-434                               691.5986
 J-435                               683.0226
 J-436                               630.6306
 J-437                               699.9874
 J-438                               677.8897
 J-439                               626.6277
 J-44                                648.0365
 J-440                               697.1505
 J-441                               693.9142
 J-442                               585.9361
 J-443                               585.0862
 J-444                               689.5768
 J-445                               689.0112
 J-446                               518.3365
 J-447                               519.3922
 J-448                               657.9747
 J-449                               597.2289
 J-45                                633.7269
 J-450                               588.1766
 J-451                               650.2797
 J-452                               579.8326
 J-453                               583.6439
 J-454                               706.7075
 J-455                               697.2281
 J-456                               670.4377
 J-457                               573.9099
 J-458                               565.4280
 J-459                               685.3290
 J-46                                649.8894
 J-460                               568.3317
 J-461                               575.2455
 J-462                               585.9603
 J-463                               579.0305
 J-464                               628.9510
 J-465                               605.4763
 J-466                               684.5135
 J-467                               690.7563
 J-468                               576.2653
 J-469                               598.9883
 J-47                                660.3748
 J-470                               596.3301
 J-471                               671.9576
 J-472                               586.7481
 J-473                               570.2524
 J-474                               496.4749
 J-475                               633.6655
 J-476                               617.3707
 J-477                               601.4479
 J-478                               688.0110
 J-479                               685.7339
 J-48                                639.6245
 J-480                               675.9120
 J-481                               674.0844
 J-482                               685.7190
 J-483                               570.0308
 J-484                               600.0169
 J-485                               575.4335
 J-486                               673.1379
 J-487                               680.9321
 J-488                               627.3683
 J-489                               640.5385
 J-49                                660.6948
 J-490                               651.3229
 J-491                               480.2473
 J-492                               582.8739
 J-493                               621.8464
 J-494                               594.7097
 J-495                               678.4036
 J-496                               585.0176
 J-497                               622.2570
 J-498                               571.6581
 J-499                               565.4865
 J-5                                 698.0000
 J-50                                660.4110
 J-500                               670.7586
 J-501                               654.7303
 J-502                               682.3743
 J-503                               555.3581
 J-504                               653.1062
 J-505                               582.1851
 J-506                               600.2261
 J-507                               507.8988
 J-508                               616.1289
 J-509                               612.0599
 J-51                                660.0041
 J-510                               534.7653
 J-511                               672.8113
 J-512                               670.7065
 J-513                               544.9556
 J-514                               597.4137
 J-515                               648.6850
 J-516                               551.2546
 J-517                               635.8926
 J-518                               668.9998
 J-519                               570.6694
 J-52                                695.4556
 J-520                               697.0350
 J-521                               534.9074
 J-522                               666.9985
 J-523                               641.5439
 J-524                               680.0353
 J-525                               681.4127
 J-526                               676.0822
 J-527                               691.9692
 J-528                               688.2119
 J-529                               698.0931
 J-53                                614.1567
 J-530                               702.8127
 J-531                               668.9998
 J-532                               598.9790
 J-533                               674.5611
 J-534                               672.9713
 J-535                               653.5962
 J-536                               647.0877
 J-537                               704.0000
 J-538                               704.1880
 J-539                               678.6726
 J-54                                673.7596
 J-540                               660.8057
 J-541                               661.3532
 J-542                               698.4534
 J-543                               662.4149
 J-544                               655.9254
 J-545                               615.0056
 J-546                               577.2596
 J-547                               680.0256
 J-548                               687.1564
 J-549                               681.0000
 J-55                                676.8953
 J-550                               687.5785
 J-551                               652.1187
 J-552                               679.5529
 J-553                               699.9662
 J-554                               556.7899
 J-555                               666.5219
 J-556                               555.0311
 J-557                               702.6028
 J-558                               683.8066
 J-559                               570.2227
 J-56                                660.7728
 J-560                               681.5895
 J-561                               669.8033
 J-562                               562.4125
 J-563                               521.6953
 J-564                               673.8878
 J-565                               698.6036
 J-566                               677.2563
 J-567                               693.5529
 J-568                               474.3107
 J-569                               545.5497
 J-57                                642.6108
 J-570                               527.1198
 J-571                               542.4830
 J-572                               622.2068
 J-573                               544.1841
 J-574                               606.2624
 J-575                               702.0071
 J-576                               661.6914
 J-577                               648.1893
 J-578                               672.0189
 J-579                               655.6446
 J-58                                667.1088
 J-580                               680.1830
 J-581                               554.7155
 J-582                               714.1804
 J-583                               713.0403
 J-584                               642.0287
 J-585                               694.0375
 J-586                               542.2399
 J-587                               691.5846
 J-588                               679.6810
 J-589                               547.9030
 J-59                                670.3834
 J-590                               708.2179
 J-591                               709.8061
 J-592                               588.5468
 J-593                               640.4412
 J-594                               655.0116
 J-595                               689.8454
 J-596                               687.4936
 J-597                               700.8195
 J-598                               623.3526
 J-599                               600.9366
 J-59b                               622.2461
 J-59c                               641.1888
 J-59d                               636.4119
 J-59e                               632.4886
 J-59f                               667.4578
 J-59g                               667.1296
 J-59h                               664.9550
 J-59i                               652.7273
 J-59j                               650.5671
 J-59k                               646.3458
 J-59l                               622.9670
 J-59m                               658.4265
 J-59n                               671.0769
 J-59o                               671.1816
 J-59p                               658.5814
 J-59q                               660.2684
 J-59r                               669.9472
 J-59s                               669.1150
 J-59t                               677.0762
 J-59u                               665.4516
 J-59v                               670.9307
 J-59w                               679.8290
 J-59x                               676.7870
 J-59y                               674.3915
 J-59z                               651.2915
 J-6                                 690.8769
 J-60                                652.9246
 J-600                               632.2844
 J-601                               575.3785
 J-602                               652.7529
 J-603                               671.7257
 J-604                               714.3260
 J-605                               588.8813
 J-606                               655.9384
 J-607                               675.2903
 J-608                               659.0002
 J-609                               663.6735
 J-61                                669.2538
 J-610                               666.9916
 J-611                               557.2267
 J-612                               662.9355
 J-614                               595.5059
 J-615                               563.2401
 J-616                               662.8620
 J-617                               667.1932
 J-618                               671.9494
 J-619                               662.4925
 J-62                                661.0120
 J-620                               655.3686
 J-621                               671.9998
 J-622                               671.0068
 J-623                               667.5444
 J-624                               697.3519
 J-625                               643.6611
 J-626                               660.0000
 J-627                               659.0020
 J-628                               678.9778
 J-629                               605.4483
 J-63                                668.2524
 J-630                               532.0062
 J-631                               628.7423
 J-632                               648.8860
 J-633                               627.9350
 J-634                               688.9977
 J-637                               666.3500
 J-638                               701.9976
 J-639                               547.6257
 J-64                                687.2356
 J-640                               517.6242
 J-641                               667.0000
 J-642                               678.8983
 J-643                               659.5828
 J-644                               662.9032
 J-645                               663.1931
 J-646                               660.5909
 J-647                               634.3173
 J-648                               672.0178
 J-649                               641.9887
 J-65                                532.0147
 J-650                               648.2892
 J-651                               664.2609
 J-652                               680.5966
 J-653                               534.1228
 J-654                               635.4238
 J-655                               674.5800
 J-656                               684.5317
 J-657                               708.5668
 J-658                               702.8437
 J-659                               705.6571
 J-66                                663.7766
 J-660                               706.9919
 J-661                               625.7186
 J-662                               660.8082
 J-663                               703.3207
 J-664                               712.7319
 J-665                               705.3658
 J-666                               707.3978
 J-667                               708.1321