[TITLE]

[JUNCTIONS]
 J-1                                 488.5406
 J-10                                479.4442
 J-100                               469.2782
 J-101                               473.0997
 J-102                               477.6357
 J-103                               501.3339
 J-104                               512.9191
 J-105                               447.4791
 J-106                               448.0005
 J-107                               486.3968
 J-108                               493.0251
 J-109                               479.2514
 J-11                                510.9562
 J-110                               476.8779
 J-111                               458.5988
 J-112                               458.9200
 J-113                               519.5972
 J-114                               526.8351
 J-115                               452.0381
 J-116                               459.5506
 J-117                               475.8924
 J-118                               464.8242
 J-119                               505.0000
 J-12                                497.7011
 J-120                               503.0000
 J-121                               522.8993
 J-122                               521.5494
 J-123                               530.9999
 J-124                               521.8985
 J-125                               503.3083
 J-126                               491.1395
 J-127                               501.0000
 J-128                               490.0879
 J-129                               493.0006
 J-13                                477.9048
 J-130                               455.1250
 J-131                               453.6250
 J-132                               520.2978
 J-133                               516.8042
 J-134                               501.0000
 J-135                               498.9111
 J-136                               473.3589
 J-137                               473.2273
 J-138                               487.8831
 J-139                               479.0066
 J-14                                483.1380
 J-140                               440.9927
 J-141                               442.7382
 J-142                               442.9998
 J-143                               440.3202
 J-144                               476.0092
 J-145                               447.0001
 J-146                               513.8306
 J-147                               454.7263
 J-148                               463.9976
 J-149                               459.1891
 J-15                                498.9065
 J-150                               446.7929
 J-151                               530.7886
 J-152                               528.1017
 J-153                               488.9131
 J-154                               499.0132
 J-155                               472.0002
 J-156                               472.1863
 J-157                               497.6465
 J-158                               496.6490
 J-159                               455.1941
 J-16                                488.6935
 J-160                               450.0687
 J-161                               444.1080
 J-162                               441.1731
 J-163                               505.6182
 J-164                               521.0253
 J-165                               455.8560
 J-166                               444.9332
 J-167                               510.1582
 J-168                               508.3722
 J-169                               507.3455
 J-17                                504.3348
 J-170                               508.4157
 J-171                               480.6542
 J-172                               480.4165
 J-173                               478.0000
 J-174                               475.5476
 J-175                               477.4251
 J-176                               467.4981
 J-177                               452.5790
 J-178                               492.8872
 J-179                               484.8264
 J-18                                513.4354
 J-180                               457.5754
 J-181                               452.5247
 J-182                               474.8399
 J-183                               467.3019
 J-184                               481.3306
 J-185                               481.5532
 J-186                               474.9516
 J-187                               477.5147
 J-188                               464.1764
 J-189                               468.4871
 J-19                                476.0375
 J-190                               471.9590
 J-191                               473.8441
 J-192                               520.9691
 J-193                               520.0000
 J-194                               498.9041
 J-195                               498.9963
 J-196                               471.1962
 J-197                               474.3276
 J-198                               475.0072
 J-199                               475.0150
 J-2                                 488.9892
 J-20                                478.3458
 J-200                               517.9286
 J-201                               450.9189
 J-202                               471.1505
 J-203                               493.1509
 J-204                               486.8931
 J-205                               482.2220
 J-206                               474.0369
 J-207                               447.7188
 J-208                               444.0000
 J-209                               445.0006
 J-21                                470.0976
 J-210                               473.2309
 J-211                               509.3977
 J-212                               476.6284
 J-213                               473.3621
 J-214                               492.0016
 J-215                               493.0029
 J-216                               463.4636
 J-217                               466.7375
 J-218                               485.0614
 J-219                               480.0102
 J-22                                469.1679
 J-220                               440.0331
 J-221                               445.8811
 J-222                               478.9743
 J-223                               487.0760
 J-224                               453.9985
 J-225                               451.5419
 J-226                               485.5032
 J-227                               458.0467
 J-228                               521.9971
 J-229                               461.1873
 J-23                                454.3266
 J-230                               483.8197
 J-231                               483.4978
 J-232                               481.7785
 J-233                               488.6114
 J-234                               480.9550
 J-235                               440.0237
 J-236                               494.9785
 J-237                               500.9979
 J-238                               481.4730
 J-239                               480.2177
 J-24                                456.0285
 J-240                               494.8975
 J-241                               494.3561
 J-242                               504.6530
 J-243                               496.6191
 J-244                               488.9932
 J-245                               488.7381
 J-246                               500.0001
 J-247                               499.9702
 J-248                               505.6750
 J-249                               512.3477
 J-25                                495.0992
 J-250                               464.5250
 J-251                               459.0000
 J-252                               481.0000
 J-253                               458.8113
 J-254                               458.3014
 J-255                               446.9822
 J-256                               459.5058
 J-257                               479.0796
 J-258                               478.0002
 J-259                               522.8731
 J-26                                484.1131
 J-260                               453.9576
 J-261                               454.9423
 J-262                               503.1400
 J-263                               509.0131
 J-264                               497.9042
 J-265                               511.9526
 J-266                               520.0634
 J-267                               440.0227
 J-268                               464.2132
 J-269                               440.2242
 J-27                                510.0010
 J-270                               459.3597
 J-271                               472.6274
 J-272                               497.1954
 J-273                               467.6498
 J-274                               473.7466
 J-275                               488.1365
 J-276                               479.2142
 J-277                               471.7818
 J-278                               496.8242
 J-279                               465.7387
 J-28                                520.0015
 J-280                               467.7578
 J-281                               477.5254
 J-282                               479.9550
 J-283                               488.5240
 J-284                               494.4372
 J-285                               520.1152
 J-286                               523.4064
 J-287                               462.7112
 J-288                               463.5500
 J-289                               460.3110
 J-29                                454.3740
 J-290                               478.9996
 J-291                               473.7595
 J-292                               448.0005
 J-293                               522.3467
 J-294                               478.8261
 J-295                               497.4230
 J-296                               466.1673
 J-297                               480.0000
 J-298                               506.8402
 J-299                               468.0873
 J-3                                 488.0764
 J-30                                492.6423
 J-300                               484.5409
 J-301                               503.3831
 J-302                               490.0032
 J-303                               513.9004
 J-304                               449.5522
 J-305                               479.6667
 J-306                               471.6093
 J-307                               473.8167
 J-308                               469.9219
 J-309                               452.3435
 J-31                                485.9098
 J-310                               460.8619
 J-311                               486.0648
 J-312                               467.7674
 J-313                               472.9849
 J-314                               474.1019
 J-315                               466.8520
 J-316                               459.2553
 J-317                               462.6216
 J-318                               477.0228
 J-319                               473.3543
 J-32                                473.6433
 J-320                               500.0403
 J-321                               501.1534
 J-322                               473.8333
 J-323                               465.7713
 J-324                               470.8425
 J-325                               473.9290
 J-326                               483.2548
 J-327                               445.4799
 J-328                               458.6782
 J-329                               461.4047
 J-33                                488.2647
 J-330                               471.6142
 J-331                               501.4004
 J-332                               500.0012
 J-333                               480.0255
 J-334                               477.1015
 J-335                               517.6356
 J-336                               521.3127
 J-337                               470.5301
 J-338                               474.6365
 J-339                               478.8762
 J-34                                495.1897
 J-340                               475.7367
 J-341                               456.8048
 J-342                               484.1961
 J-343                               483.1673
 J-344                               498.9051
 J-345                               500.2191
 J-346                               478.9127
 J-347                               477.9225
 J-348                               506.4940
 J-349                               497.2019
 J-35                                475.8574
 J-350                               507.0121
 J-351                               509.2015
 J-352                               487.0473
 J-353                               474.1286
 J-354                               475.3296
 J-355                               488.8994
 J-356                               488.4880
 J-357                               492.4986
 J-358                               479.3627
 J-359                               503.8715
 J-36                                491.0832
 J-360                               468.4990
 J-361                               479.9712
 J-362                               472.0659
 J-363                               494.0436
 J-364                               477.8499
 J-365                               483.3193
 J-366                               479.1212
 J-367                               504.9601
 J-368                               490.0106
 J-369                               499.3129
 J-37                                480.9976
 J-370                               472.5466
 J-371                               458.0799
 J-372                               453.9267
 J-373                               477.5958
 J-374                               499.0708
 J-375                               462.8761
 J-376                               458.0417
 J-377                               444.8056
 J-378                               480.4988
 J-379                               447.7667
 J-38                                474.2695
 J-380                               513.0482
 J-381                               520.2845
 J-382                               482.4785
 J-383                               503.5340
 J-384                               507.8481
 J-385                               488.1151
 J-386                               520.9415
 J-387                               498.9027
 J-388                               491.1766
 J-389                               468.7652
 J-39                                476.9550
 J-390                               511.7228
 J-391                               508.4629
 J-392                               493.2849
 J-393                               501.0000
 J-394                               513.2495
 J-395                               438.1302
 J-396                               474.7549
 J-397                               487.6299
 J-398                               511.0003
 J-399                               465.4232
 J-4                                 476.9998
 J-40                                469.3909
 J-400                               518.3047
 J-401                               474.2361
 J-402                               459.6330
 J-403                               479.1885
 J-404                               447.4148
 J-405                               490.5405
 J-406                               467.8786
 J-407                               474.7482
 J-408                               451.3787
 J-409                               508.2117
 J-41                                469.0540
 J-410                               479.2903
 J-411                               465.7178
 J-412                               498.9420
 J-413                               495.8615
 J-414                               482.3524
 J-415                               474.4174
 J-416                               448.3438
 J-417                               473.2675
 J-418                               522.6591
 J-419                               521.0413
 J-42                                474.3353
 J-420                               470.1938
 J-421                               461.1829
 J-422                               479.6041
 J-423                               512.6216
 J-424                               510.8972
 J-425                               454.0801
 J-426                               455.9327
 J-427                               450.7117
 J-428                               476.3597
 J-429                               503.9842
 J-43                                481.2534
 J-430                               500.7206
 J-431                               465.9268
 J-432                               465.6077
 J-433                               488.8943
 J-434                               513.7797
 J-435                               500.0120
 J-436                               464.6693
 J-437                               447.0018
 J-438                               515.4642
 J-439                               512.6067
 J-44                                479.0710
 J-440                               474.2805
 J-441                               526.8813
 J-442                               524.0762
 J-443                               511.8596
 J-444                               492.1432
 J-445                               481.2613
 J-446                               497.3239
 J-447                               477.8204
 J-448                               479.9821
 J-449                               454.3603
 J-45                                491.6044
 J-450                               482.8698
 J-451                               514.0768
 J-452                               524.6258
 J-453                               453.7997
 J-454                               482.7403
 J-455                               487.5103
 J-456                               477.5176
 J-457                               463.0746
 J-458                               440.0190
 J-459                               435.0195
 J-46                                491.1705
 J-460                               502.0243
 J-461                               509.5276
 J-462                               518.6579
 J-463                               485.5200
 J-464                               490.5504
 J-465                               474.9118
 J-466                               522.1968
 J-467                               514.4610
 J-468                               512.7116
 J-469                               506.4176
 J-47                                500.7562
 J-470                               479.8321
 J-471                               508.0008
 J-472                               453.1176
 J-473                               472.8798
 J-474                               468.6486
 J-475                               472.3679
 J-476                               482.6245
 J-477                               502.2900
 J-478                               520.2753
 J-479                               521.4870
 J-48                                497.0075
 J-480                               441.9067
 J-481                               494.3117
 J-482                               520.0481
 J-483                               530.4333
 J-484                               445.9117
 J-485                               488.2168
 J-486                               524.4078
 J-487                               520.0761
 J-488                               493.0356
 J-489                               493.8779
 J-49                                472.5791
 J-490                               450.0022
 J-491                               450.1251
 J-492                               496.1911
 J-493                               445.1418
 J-494                               474.9087
 J-495                               468.6072
 J-496                               495.0202
 J-497                               499.0987
 J-498                               442.0000
 J-499                               442.0000
 J-5                                 510.9996
 J-50                                468.1243
 J-500                               466.0906
 J-501                               463.3187
 J-502                               517.9044
 J-503                               521.8410
 J-504                               476.5872
 J-505                               476.7067
 J-506                               521.5006
 J-507                               468.0522
 J-508                               482.1042
 J-509                               457.0009
 J-51                                480.0001
 J-510                               467.0146
 J-511                               455.7843
 J-512                               484.6204
 J-513                               502.7373
 J-514                               496.9591
 J-515                               498.8972
 J-516                               523.4911
 J-517                               474.0187
 J-518                               457.1637
 J-519                               450.4954
 J-52                                487.9403
 J-520                               503.5534
 J-521                               482.7302
 J-522                               456.2277
 J-523                               457.5392
 J-524                               520.0620
 J-525                               506.7953
 J-526                               479.3588
 J-527                               487.6527
 J-528                               513.9972
 J-529                               479.0195
 J-53                                521.3414
 J-530                               461.5254
 J-531                               466.8345
 J-532                               499.4467
 J-533                               488.4807
 J-534                               475.2729
 J-535                               479.7079
 J-536                               477.4508
 J-537                               471.7246
 J-538                               475.8805
 J-539                               477.6522
 J-54                                520.5989
 J-540                               473.2678
 J-541                               460.2886
 J-542                               469.5103
 J-543                               479.7683
 J-544                               473.7218
 J-545                               467.5221
 J-546                               467.9564
 J-547                               474.3648
 J-548                               448.2216
 J-549                               507.9276
 J-55                                475.3569
 J-550                               501.0642
 J-551                               475.0339
 J-552                               520.6198
 J-553                               494.9684
 J-554                               505.4399
 J-555                               474.0009
 J-556                               474.0002
 J-557                               442.0000
 J-558                               441.7070
 J-559                               440.8560
 J-56                                475.2301
 J-560                               441.6349
 J-561                               522.0271
 J-562                               522.6443
 J-563                               500.8881
 J-564                               457.4319
 J-565                               477.7522
 J-566                               462.3521
 J-567                               458.0153
 J-568                               521.6000
 J-569                               491.5151
 J-57                                489.6581
 J-570                               495.6809
 J-571                               481.2298
 J-572                               475.0006
 J-573                               472.0003
 J-574                               468.3923
 J-575                               489.3949
 J-576                               507.1211
 J-577                               482.7516
 J-578                               478.0575
 J-579                               492.4848
 J-58                                497.2687
 J-580                               468.6626
 J-581                               468.0531
 J-582                               516.4016
 J-583                               479.6598
 J-584                               499.1289
 J-585                               472.7575
 J-586                               466.4022
 J-587                               519.4310
 J-588                               521.6735
 J-589                               444.2184
 J-59                                468.9327
 J-590                               443.1677
 J-591                               453.6622
 J-592                               476.7120
 J-593                               470.8166
 J-594                               510.3417
 J-595                               479.9576
 J-596                               454.7906
 J-597                               472.2639
 J-598                               506.4841
 J-599                               482.5312
 J-6                                 496.4723
 J-60                                452.9752
 J-600                               478.3100
 J-601                               488.9663
 J-602                               462.2732
 J-603                               446.9084
 J-604                               450.6094
 J-605                               447.0000
 J-606                               478.8375
 J-607                               457.9771
 J-608                               477.9400
 J-609                               441.8622
 J-61                                469.2583
 J-610                               501.0475
 J-611                               467.8781
 J-612                               518.8470
 J-613                               446.0288
 J-614                               479.1487
 J-615                               480.9343
 J-616                               438.2688
 J-617                               522.6302
 J-618                               507.1775
 J-619                               508.2113
 J-62                                456.1117
 J-620                               487.7096
 J-621                               503.3356
 J-622                               509.0780
 J-623                               508.0215
 J-624                               453.8977
 J-625                               509.9310
 J-626                               482.0000
 J-627                               480.3415
 J-628                               524.6385
 J-629                               456.5507
 J-63                                527.4424
 J-630                               456.5150
 J-631                               449.2174
 J-632                               454.6940
 J-633                               460.3515
 J-634                               484.8182
 J-635                               484.1187
 J-636                               459.7632
 J-637                               440.0679
 J-638                               441.2546
 J-639                               458.4955
 J-64                                520.1275
 J-640                               510.7697
 J-641                               498.5711
 J-642                               520.2333
 J-643                               494.2776
 J-644                               511.5024
 J-645                               490.5837
 J-646                               492.1117
 J-647                               439.9782
 J-648                               492.4980
 J-649                               452.7425
 J-65                                442.8311
 J-650                               444.9696
 J-651                               445.5233
 J-652                               484.9863
 J-653                               484.9343
 J-654                               493.8959
 J-655                               465.2439
 J-656                               474.5167
 J-657                               493.1116
 J-658                               493.9791
 J-659                               457.0253
 J-66                                442.1033
 J-660                               435.0005
 J-661                               480.0757
 J-662                               448.2818
 J-663                               489.1504
 J-664                               520.9774
 J-665                               462.0419
 J-666                               462.2182
 J-667                               452.2203
 J-668                               520.3541
 J-669                               493.3619
 J-67                                495.9348
 J-670                               458.3027
 J-671                               511.2601
 J-672                               470.8986
 J-673                               446.0000
 J-674                               462.7020
 J-675                               482.1235
 J-676                               441.2944
 J-677                               447.6008
 J-678                               438.9730
 J-679                               473.5793
 J-68                                495.7112
 J-680                               461.8458
 J-681                               502.4061
 J-682                               440.2325
 J-683                               523.9999
 J-684                               518.8730
 J-685                               470.1902